<?xml version="1.0"?>
<Ontology xmlns="http://www.w3.org/2002/07/owl#"
     xml:base="http://www.w3id.org/VNsounds/ontology"
     xmlns:rdf="http://www.w3.org/1999/02/22-rdf-syntax-ns#"
     xmlns:xml="http://www.w3.org/XML/1998/namespace"
     xmlns:xsd="http://www.w3.org/2001/XMLSchema#"
     xmlns:rdfs="http://www.w3.org/2000/01/rdf-schema#"
     ontologyIRI="http://www.w3id.org/VNsounds/ontology">
    <Prefix name="" IRI="http://www.w3id.org/VNsounds/ontology/"/>
    <Prefix name="owl" IRI="http://www.w3.org/2002/07/owl#"/>
    <Prefix name="rdf" IRI="http://www.w3.org/1999/02/22-rdf-syntax-ns#"/>
    <Prefix name="xml" IRI="http://www.w3.org/XML/1998/namespace"/>
    <Prefix name="xsd" IRI="http://www.w3.org/2001/XMLSchema#"/>
    <Prefix name="rdfs" IRI="http://www.w3.org/2000/01/rdf-schema#"/>
    <Import>http://www.w3id.org/VNsource/ontology</Import>
    <Declaration>
        <Class IRI="http://www.w3id.org/VNsounds/SoundSource_Class"/>
    </Declaration>
    <Declaration>
        <Class IRI="/AeroDynamicMechanism"/>
    </Declaration>
    <Declaration>
        <Class IRI="/Bubble"/>
    </Declaration>
    <Declaration>
        <Class IRI="/Burst"/>
    </Declaration>
    <Declaration>
        <Class IRI="/Combustion_Engines"/>
    </Declaration>
    <Declaration>
        <Class IRI="/ConstrainedAirFlow"/>
    </Declaration>
    <Declaration>
        <Class IRI="/Continous"/>
    </Declaration>
    <Declaration>
        <Class IRI="/Cut"/>
    </Declaration>
    <Declaration>
        <Class IRI="/Deformation"/>
    </Declaration>
    <Declaration>
        <Class IRI="/Drip"/>
    </Declaration>
    <Declaration>
        <Class IRI="/Eject"/>
    </Declaration>
    <Declaration>
        <Class IRI="/ElectricMechanism"/>
    </Declaration>
    <Declaration>
        <Class IRI="/Expansion"/>
    </Declaration>
    <Declaration>
        <Class IRI="/Explosion"/>
    </Declaration>
    <Declaration>
        <Class IRI="/Fill"/>
    </Declaration>
    <Declaration>
        <Class IRI="/Flow"/>
    </Declaration>
    <Declaration>
        <Class IRI="/Friction"/>
    </Declaration>
    <Declaration>
        <Class IRI="/Gas"/>
    </Declaration>
    <Declaration>
        <Class IRI="/Gusts"/>
    </Declaration>
    <Declaration>
        <Class IRI="/Hiss"/>
    </Declaration>
    <Declaration>
        <Class IRI="/Impact"/>
    </Declaration>
    <Declaration>
        <Class IRI="/Liquid"/>
    </Declaration>
    <Declaration>
        <Class IRI="/LiquidDynamicMechanism"/>
    </Declaration>
    <Declaration>
        <Class IRI="/Motion"/>
    </Declaration>
    <Declaration>
        <Class IRI="/Movement"/>
    </Declaration>
    <Declaration>
        <Class IRI="/NoSound"/>
    </Declaration>
    <Declaration>
        <Class IRI="/Patterned"/>
    </Declaration>
    <Declaration>
        <Class IRI="/Periodic"/>
    </Declaration>
    <Declaration>
        <Class IRI="/Pour"/>
    </Declaration>
    <Declaration>
        <Class IRI="/Random"/>
    </Declaration>
    <Declaration>
        <Class IRI="/Ripple"/>
    </Declaration>
    <Declaration>
        <Class IRI="/Roll"/>
    </Declaration>
    <Declaration>
        <Class IRI="/Scrape"/>
    </Declaration>
    <Declaration>
        <Class IRI="/Sequence"/>
    </Declaration>
    <Declaration>
        <Class IRI="/Single"/>
    </Declaration>
    <Declaration>
        <Class IRI="/Solid"/>
    </Declaration>
    <Declaration>
        <Class IRI="/SolidDynamicMechanism"/>
    </Declaration>
    <Declaration>
        <Class IRI="/SoundAcoustics"/>
    </Declaration>
    <Declaration>
        <Class IRI="/SoundAttribute"/>
    </Declaration>
    <Declaration>
        <Class IRI="/SoundContext"/>
    </Declaration>
    <Declaration>
        <Class IRI="/SoundMaterial"/>
    </Declaration>
    <Declaration>
        <Class IRI="/SoundMechanism"/>
    </Declaration>
    <Declaration>
        <Class IRI="/SoundRecurrence"/>
    </Declaration>
    <Declaration>
        <Class IRI="/SoundRegularity"/>
    </Declaration>
    <Declaration>
        <Class IRI="/SoundSource"/>
    </Declaration>
    <Declaration>
        <Class IRI="/Splash"/>
    </Declaration>
    <Declaration>
        <Class IRI="/Spray"/>
    </Declaration>
    <Declaration>
        <Class IRI="/Static"/>
    </Declaration>
    <Declaration>
        <Class IRI="/Synthetic_sound"/>
    </Declaration>
    <Declaration>
        <Class IRI="/Unclear_investigate"/>
    </Declaration>
    <Declaration>
        <Class IRI="/Unclear_mechanism"/>
    </Declaration>
    <Declaration>
        <Class IRI="/UnconstrainedAirFlow"/>
    </Declaration>
    <Declaration>
        <Class IRI="/Vocal"/>
    </Declaration>
    <Declaration>
        <Class IRI="/Wind"/>
    </Declaration>
    <Declaration>
        <Class IRI="/bray"/>
    </Declaration>
    <Declaration>
        <Class IRI="/chirp"/>
    </Declaration>
    <Declaration>
        <Class IRI="/crackle"/>
    </Declaration>
    <Declaration>
        <Class IRI="/crumple"/>
    </Declaration>
    <Declaration>
        <Class IRI="/fart"/>
    </Declaration>
    <Declaration>
        <Class IRI="/flutter"/>
    </Declaration>
    <Declaration>
        <Class IRI="/jingle"/>
    </Declaration>
    <Declaration>
        <Class IRI="/snore"/>
    </Declaration>
    <Declaration>
        <Class IRI="/10.x"/>
    </Declaration>
    <Declaration>
        <Class IRI="/11.x"/>
    </Declaration>
    <Declaration>
        <Class IRI="/12.x"/>
    </Declaration>
    <Declaration>
        <Class IRI="/13.x"/>
    </Declaration>
    <Declaration>
        <Class IRI="/15.x"/>
    </Declaration>
    <Declaration>
        <Class IRI="/16.x"/>
    </Declaration>
    <Declaration>
        <Class IRI="/17.x"/>
    </Declaration>
    <Declaration>
        <Class IRI="/18.x"/>
    </Declaration>
    <Declaration>
        <Class IRI="/20.x"/>
    </Declaration>
    <Declaration>
        <Class IRI="/21.x"/>
    </Declaration>
    <Declaration>
        <Class IRI="/22.x"/>
    </Declaration>
    <Declaration>
        <Class IRI="/23.x"/>
    </Declaration>
    <Declaration>
        <Class IRI="/25.x"/>
    </Declaration>
    <Declaration>
        <Class IRI="/26.x"/>
    </Declaration>
    <Declaration>
        <Class IRI="/27.x"/>
    </Declaration>
    <Declaration>
        <Class IRI="/29.x"/>
    </Declaration>
    <Declaration>
        <Class IRI="/30.x"/>
    </Declaration>
    <Declaration>
        <Class IRI="/31.x"/>
    </Declaration>
    <Declaration>
        <Class IRI="/32.x"/>
    </Declaration>
    <Declaration>
        <Class IRI="/33.x"/>
    </Declaration>
    <Declaration>
        <Class IRI="/34.x"/>
    </Declaration>
    <Declaration>
        <Class IRI="/35.x"/>
    </Declaration>
    <Declaration>
        <Class IRI="/36.x"/>
    </Declaration>
    <Declaration>
        <Class IRI="/37.x"/>
    </Declaration>
    <Declaration>
        <Class IRI="/39.x"/>
    </Declaration>
    <Declaration>
        <Class IRI="/40.x"/>
    </Declaration>
    <Declaration>
        <Class IRI="/41.x"/>
    </Declaration>
    <Declaration>
        <Class IRI="/42.x"/>
    </Declaration>
    <Declaration>
        <Class IRI="/43.x"/>
    </Declaration>
    <Declaration>
        <Class IRI="/44.x"/>
    </Declaration>
    <Declaration>
        <Class IRI="/45.x"/>
    </Declaration>
    <Declaration>
        <Class IRI="/46.x"/>
    </Declaration>
    <Declaration>
        <Class IRI="/47.x"/>
    </Declaration>
    <Declaration>
        <Class IRI="/48.x"/>
    </Declaration>
    <Declaration>
        <Class IRI="/50.x"/>
    </Declaration>
    <Declaration>
        <Class IRI="/51.x"/>
    </Declaration>
    <Declaration>
        <Class IRI="/52.x"/>
    </Declaration>
    <Declaration>
        <Class IRI="/54.x"/>
    </Declaration>
    <Declaration>
        <Class IRI="/55.x"/>
    </Declaration>
    <Declaration>
        <Class IRI="/58.x"/>
    </Declaration>
    <Declaration>
        <Class IRI="/67.x"/>
    </Declaration>
    <Declaration>
        <Class IRI="/68.x"/>
    </Declaration>
    <Declaration>
        <Class IRI="/74.x"/>
    </Declaration>
    <Declaration>
        <Class IRI="/80.x"/>
    </Declaration>
    <Declaration>
        <Class IRI="/9.x"/>
    </Declaration>
    <Declaration>
        <Class IRI="/90.x"/>
    </Declaration>
    <Declaration>
        <Class IRI="/Deformation/Deformation"/>
    </Declaration>
    <Declaration>
        <Class IRI="http://www.w3id.org/VerbNet/Appearance_Disappearance_and_Occurrence"/>
    </Declaration>
    <Declaration>
        <Class IRI="http://www.w3id.org/VerbNet/Aspectual"/>
    </Declaration>
    <Declaration>
        <Class IRI="http://www.w3id.org/VerbNet/Assessment"/>
    </Declaration>
    <Declaration>
        <Class IRI="http://www.w3id.org/VerbNet/Assuming_a_Position"/>
    </Declaration>
    <Declaration>
        <Class IRI="http://www.w3id.org/VerbNet/Avoid"/>
    </Declaration>
    <Declaration>
        <Class IRI="http://www.w3id.org/VerbNet/Body_Internal_Motion"/>
    </Declaration>
    <Declaration>
        <Class IRI="http://www.w3id.org/VerbNet/Change_of_Possession"/>
    </Declaration>
    <Declaration>
        <Class IRI="http://www.w3id.org/VerbNet/Change_of_State"/>
    </Declaration>
    <Declaration>
        <Class IRI="http://www.w3id.org/VerbNet/Coloring"/>
    </Declaration>
    <Declaration>
        <Class IRI="http://www.w3id.org/VerbNet/Combining_and_Attaching"/>
    </Declaration>
    <Declaration>
        <Class IRI="http://www.w3id.org/VerbNet/Communication"/>
    </Declaration>
    <Declaration>
        <Class IRI="http://www.w3id.org/VerbNet/Concealment"/>
    </Declaration>
    <Declaration>
        <Class IRI="http://www.w3id.org/VerbNet/Contact_Touch"/>
    </Declaration>
    <Declaration>
        <Class IRI="http://www.w3id.org/VerbNet/Contact_by_Impact"/>
    </Declaration>
    <Declaration>
        <Class IRI="http://www.w3id.org/VerbNet/Creation_and_Transformation"/>
    </Declaration>
    <Declaration>
        <Class IRI="http://www.w3id.org/VerbNet/Cutting"/>
    </Declaration>
    <Declaration>
        <Class IRI="http://www.w3id.org/VerbNet/Desire"/>
    </Declaration>
    <Declaration>
        <Class IRI="http://www.w3id.org/VerbNet/Destroy"/>
    </Declaration>
    <Declaration>
        <Class IRI="http://www.w3id.org/VerbNet/Emission"/>
    </Declaration>
    <Declaration>
        <Class IRI="http://www.w3id.org/VerbNet/Engender"/>
    </Declaration>
    <Declaration>
        <Class IRI="http://www.w3id.org/VerbNet/Exceed"/>
    </Declaration>
    <Declaration>
        <Class IRI="http://www.w3id.org/VerbNet/Exerting_Force_Push_Pull"/>
    </Declaration>
    <Declaration>
        <Class IRI="http://www.w3id.org/VerbNet/Existence"/>
    </Declaration>
    <Declaration>
        <Class IRI="http://www.w3id.org/VerbNet/Forbid"/>
    </Declaration>
    <Declaration>
        <Class IRI="http://www.w3id.org/VerbNet/Free"/>
    </Declaration>
    <Declaration>
        <Class IRI="http://www.w3id.org/VerbNet/Grooming_and_Bodily_Care"/>
    </Declaration>
    <Declaration>
        <Class IRI="http://www.w3id.org/VerbNet/Hold_and_Keep"/>
    </Declaration>
    <Declaration>
        <Class IRI="http://www.w3id.org/VerbNet/Image_Creation"/>
    </Declaration>
    <Declaration>
        <Class IRI="http://www.w3id.org/VerbNet/Ingesting"/>
    </Declaration>
    <Declaration>
        <Class IRI="http://www.w3id.org/VerbNet/Involving_the_Body"/>
    </Declaration>
    <Declaration>
        <Class IRI="http://www.w3id.org/VerbNet/Judgement"/>
    </Declaration>
    <Declaration>
        <Class IRI="http://www.w3id.org/VerbNet/Killing"/>
    </Declaration>
    <Declaration>
        <Class IRI="http://www.w3id.org/VerbNet/Learn_Verbs"/>
    </Declaration>
    <Declaration>
        <Class IRI="http://www.w3id.org/VerbNet/Lingering_and_Rushing"/>
    </Declaration>
    <Declaration>
        <Class IRI="http://www.w3id.org/VerbNet/Lodge"/>
    </Declaration>
    <Declaration>
        <Class IRI="http://www.w3id.org/VerbNet/Measure"/>
    </Declaration>
    <Declaration>
        <Class IRI="http://www.w3id.org/VerbNet/Motion"/>
    </Declaration>
    <Declaration>
        <Class IRI="http://www.w3id.org/VerbNet/Pay"/>
    </Declaration>
    <Declaration>
        <Class IRI="http://www.w3id.org/VerbNet/Perception"/>
    </Declaration>
    <Declaration>
        <Class IRI="http://www.w3id.org/VerbNet/Poke_Verbs"/>
    </Declaration>
    <Declaration>
        <Class IRI="http://www.w3id.org/VerbNet/Predicative_Complements"/>
    </Declaration>
    <Declaration>
        <Class IRI="http://www.w3id.org/VerbNet/Psychological_State"/>
    </Declaration>
    <Declaration>
        <Class IRI="http://www.w3id.org/VerbNet/Putting"/>
    </Declaration>
    <Declaration>
        <Class IRI="http://www.w3id.org/VerbNet/Removing"/>
    </Declaration>
    <Declaration>
        <Class IRI="http://www.w3id.org/VerbNet/Searching"/>
    </Declaration>
    <Declaration>
        <Class IRI="http://www.w3id.org/VerbNet/Sending_and_Carrying"/>
    </Declaration>
    <Declaration>
        <Class IRI="http://www.w3id.org/VerbNet/Separating_and_Disassembling"/>
    </Declaration>
    <Declaration>
        <Class IRI="http://www.w3id.org/VerbNet/Social_Interaction"/>
    </Declaration>
    <Declaration>
        <Class IRI="http://www.w3id.org/VerbNet/SoundAction"/>
    </Declaration>
    <Declaration>
        <Class IRI="http://www.w3id.org/VerbNet/Sounds_Made_by_Animals"/>
    </Declaration>
    <Declaration>
        <Class IRI="http://www.w3id.org/VerbNet/Succeed"/>
    </Declaration>
    <Declaration>
        <Class IRI="http://www.w3id.org/VerbNet/Throwing"/>
    </Declaration>
    <Declaration>
        <Class IRI="http://www.w3id.org/VerbNet/Urging_and_Begging"/>
    </Declaration>
    <Declaration>
        <Class IRI="http://www.w3id.org/VerbNet/Weather"/>
    </Declaration>
    <Declaration>
        <Class IRI="http://www.w3id.org/VerbNet/abort.v.01"/>
    </Declaration>
    <Declaration>
        <Class IRI="http://www.w3id.org/VerbNet/abound.v.02"/>
    </Declaration>
    <Declaration>
        <Class IRI="http://www.w3id.org/VerbNet/absolve.v.02"/>
    </Declaration>
    <Declaration>
        <Class IRI="http://www.w3id.org/VerbNet/absorb.v.01"/>
    </Declaration>
    <Declaration>
        <Class IRI="http://www.w3id.org/VerbNet/absorb.v.04"/>
    </Declaration>
    <Declaration>
        <Class IRI="http://www.w3id.org/VerbNet/abuse.v.03"/>
    </Declaration>
    <Declaration>
        <Class IRI="http://www.w3id.org/VerbNet/accelerate.v.01"/>
    </Declaration>
    <Declaration>
        <Class IRI="http://www.w3id.org/VerbNet/accelerate.v.02"/>
    </Declaration>
    <Declaration>
        <Class IRI="http://www.w3id.org/VerbNet/accept.v.01"/>
    </Declaration>
    <Declaration>
        <Class IRI="http://www.w3id.org/VerbNet/accept.v.02"/>
    </Declaration>
    <Declaration>
        <Class IRI="http://www.w3id.org/VerbNet/accept.v.03"/>
    </Declaration>
    <Declaration>
        <Class IRI="http://www.w3id.org/VerbNet/accept.v.04"/>
    </Declaration>
    <Declaration>
        <Class IRI="http://www.w3id.org/VerbNet/accept.v.07"/>
    </Declaration>
    <Declaration>
        <Class IRI="http://www.w3id.org/VerbNet/accompany-51.7"/>
    </Declaration>
    <Declaration>
        <Class IRI="http://www.w3id.org/VerbNet/accumulate.v.02"/>
    </Declaration>
    <Declaration>
        <Class IRI="http://www.w3id.org/VerbNet/act.v.01"/>
    </Declaration>
    <Declaration>
        <Class IRI="http://www.w3id.org/VerbNet/act.v.02"/>
    </Declaration>
    <Declaration>
        <Class IRI="http://www.w3id.org/VerbNet/act.v.03"/>
    </Declaration>
    <Declaration>
        <Class IRI="http://www.w3id.org/VerbNet/act.v.04"/>
    </Declaration>
    <Declaration>
        <Class IRI="http://www.w3id.org/VerbNet/activate.v.02"/>
    </Declaration>
    <Declaration>
        <Class IRI="http://www.w3id.org/VerbNet/add.v.01"/>
    </Declaration>
    <Declaration>
        <Class IRI="http://www.w3id.org/VerbNet/add_to.v.01"/>
    </Declaration>
    <Declaration>
        <Class IRI="http://www.w3id.org/VerbNet/address.v.03"/>
    </Declaration>
    <Declaration>
        <Class IRI="http://www.w3id.org/VerbNet/adjust.v.01"/>
    </Declaration>
    <Declaration>
        <Class IRI="http://www.w3id.org/VerbNet/administer.v.04"/>
    </Declaration>
    <Declaration>
        <Class IRI="http://www.w3id.org/VerbNet/admire-31.2"/>
    </Declaration>
    <Declaration>
        <Class IRI="http://www.w3id.org/VerbNet/admire-31.2-1"/>
    </Declaration>
    <Declaration>
        <Class IRI="http://www.w3id.org/VerbNet/adopt.v.01"/>
    </Declaration>
    <Declaration>
        <Class IRI="http://www.w3id.org/VerbNet/advance.v.01"/>
    </Declaration>
    <Declaration>
        <Class IRI="http://www.w3id.org/VerbNet/advance.v.08"/>
    </Declaration>
    <Declaration>
        <Class IRI="http://www.w3id.org/VerbNet/advance.v.10"/>
    </Declaration>
    <Declaration>
        <Class IRI="http://www.w3id.org/VerbNet/advance.v.12"/>
    </Declaration>
    <Declaration>
        <Class IRI="http://www.w3id.org/VerbNet/advertise.v.02"/>
    </Declaration>
    <Declaration>
        <Class IRI="http://www.w3id.org/VerbNet/advise-37.9"/>
    </Declaration>
    <Declaration>
        <Class IRI="http://www.w3id.org/VerbNet/advise-37.9-1"/>
    </Declaration>
    <Declaration>
        <Class IRI="http://www.w3id.org/VerbNet/advise.v.02"/>
    </Declaration>
    <Declaration>
        <Class IRI="http://www.w3id.org/VerbNet/affect.v.05"/>
    </Declaration>
    <Declaration>
        <Class IRI="http://www.w3id.org/VerbNet/agitate.v.02"/>
    </Declaration>
    <Declaration>
        <Class IRI="http://www.w3id.org/VerbNet/aim.v.01"/>
    </Declaration>
    <Declaration>
        <Class IRI="http://www.w3id.org/VerbNet/air.v.03"/>
    </Declaration>
    <Declaration>
        <Class IRI="http://www.w3id.org/VerbNet/alight.v.02"/>
    </Declaration>
    <Declaration>
        <Class IRI="http://www.w3id.org/VerbNet/alter.v.03"/>
    </Declaration>
    <Declaration>
        <Class IRI="http://www.w3id.org/VerbNet/alternate.v.01"/>
    </Declaration>
    <Declaration>
        <Class IRI="http://www.w3id.org/VerbNet/alternate.v.05"/>
    </Declaration>
    <Declaration>
        <Class IRI="http://www.w3id.org/VerbNet/amalgamate-22.2-2"/>
    </Declaration>
    <Declaration>
        <Class IRI="http://www.w3id.org/VerbNet/amalgamate-22.2-2-1"/>
    </Declaration>
    <Declaration>
        <Class IRI="http://www.w3id.org/VerbNet/amalgamate-22.2-3-1-1"/>
    </Declaration>
    <Declaration>
        <Class IRI="http://www.w3id.org/VerbNet/amaze.v.01"/>
    </Declaration>
    <Declaration>
        <Class IRI="http://www.w3id.org/VerbNet/amuse-31.1"/>
    </Declaration>
    <Declaration>
        <Class IRI="http://www.w3id.org/VerbNet/analyze.v.01"/>
    </Declaration>
    <Declaration>
        <Class IRI="http://www.w3id.org/VerbNet/anchor.v.01"/>
    </Declaration>
    <Declaration>
        <Class IRI="http://www.w3id.org/VerbNet/animal_sounds-38"/>
    </Declaration>
    <Declaration>
        <Class IRI="http://www.w3id.org/VerbNet/announce.v.01"/>
    </Declaration>
    <Declaration>
        <Class IRI="http://www.w3id.org/VerbNet/announce.v.03"/>
    </Declaration>
    <Declaration>
        <Class IRI="http://www.w3id.org/VerbNet/annoy.v.01"/>
    </Declaration>
    <Declaration>
        <Class IRI="http://www.w3id.org/VerbNet/appeal.v.02"/>
    </Declaration>
    <Declaration>
        <Class IRI="http://www.w3id.org/VerbNet/appear-48.1.1"/>
    </Declaration>
    <Declaration>
        <Class IRI="http://www.w3id.org/VerbNet/appear.v.02"/>
    </Declaration>
    <Declaration>
        <Class IRI="http://www.w3id.org/VerbNet/appear.v.03"/>
    </Declaration>
    <Declaration>
        <Class IRI="http://www.w3id.org/VerbNet/applaud.v.02"/>
    </Declaration>
    <Declaration>
        <Class IRI="http://www.w3id.org/VerbNet/appoint-29.1"/>
    </Declaration>
    <Declaration>
        <Class IRI="http://www.w3id.org/VerbNet/appoint.v.01"/>
    </Declaration>
    <Declaration>
        <Class IRI="http://www.w3id.org/VerbNet/appoint.v.02"/>
    </Declaration>
    <Declaration>
        <Class IRI="http://www.w3id.org/VerbNet/approach.v.01"/>
    </Declaration>
    <Declaration>
        <Class IRI="http://www.w3id.org/VerbNet/appropriate.v.02"/>
    </Declaration>
    <Declaration>
        <Class IRI="http://www.w3id.org/VerbNet/approve.v.01"/>
    </Declaration>
    <Declaration>
        <Class IRI="http://www.w3id.org/VerbNet/approve.v.02"/>
    </Declaration>
    <Declaration>
        <Class IRI="http://www.w3id.org/VerbNet/arch.v.01"/>
    </Declaration>
    <Declaration>
        <Class IRI="http://www.w3id.org/VerbNet/argue.v.02"/>
    </Declaration>
    <Declaration>
        <Class IRI="http://www.w3id.org/VerbNet/arm.v.01"/>
    </Declaration>
    <Declaration>
        <Class IRI="http://www.w3id.org/VerbNet/arouse.v.07"/>
    </Declaration>
    <Declaration>
        <Class IRI="http://www.w3id.org/VerbNet/arrange.v.01"/>
    </Declaration>
    <Declaration>
        <Class IRI="http://www.w3id.org/VerbNet/arrange.v.06"/>
    </Declaration>
    <Declaration>
        <Class IRI="http://www.w3id.org/VerbNet/arrive.v.01"/>
    </Declaration>
    <Declaration>
        <Class IRI="http://www.w3id.org/VerbNet/articulate.v.05"/>
    </Declaration>
    <Declaration>
        <Class IRI="http://www.w3id.org/VerbNet/ascend.v.01"/>
    </Declaration>
    <Declaration>
        <Class IRI="http://www.w3id.org/VerbNet/ascend.v.05"/>
    </Declaration>
    <Declaration>
        <Class IRI="http://www.w3id.org/VerbNet/ascend.v.06"/>
    </Declaration>
    <Declaration>
        <Class IRI="http://www.w3id.org/VerbNet/ask.v.01"/>
    </Declaration>
    <Declaration>
        <Class IRI="http://www.w3id.org/VerbNet/assail.v.01"/>
    </Declaration>
    <Declaration>
        <Class IRI="http://www.w3id.org/VerbNet/assemble.v.01"/>
    </Declaration>
    <Declaration>
        <Class IRI="http://www.w3id.org/VerbNet/assemble.v.03"/>
    </Declaration>
    <Declaration>
        <Class IRI="http://www.w3id.org/VerbNet/assessment-34"/>
    </Declaration>
    <Declaration>
        <Class IRI="http://www.w3id.org/VerbNet/associate.v.01"/>
    </Declaration>
    <Declaration>
        <Class IRI="http://www.w3id.org/VerbNet/assuming_position-50"/>
    </Declaration>
    <Declaration>
        <Class IRI="http://www.w3id.org/VerbNet/attach.v.01"/>
    </Declaration>
    <Declaration>
        <Class IRI="http://www.w3id.org/VerbNet/attach.v.03"/>
    </Declaration>
    <Declaration>
        <Class IRI="http://www.w3id.org/VerbNet/attack.v.01"/>
    </Declaration>
    <Declaration>
        <Class IRI="http://www.w3id.org/VerbNet/attack.v.02"/>
    </Declaration>
    <Declaration>
        <Class IRI="http://www.w3id.org/VerbNet/attack.v.03"/>
    </Declaration>
    <Declaration>
        <Class IRI="http://www.w3id.org/VerbNet/avalanche.v.01"/>
    </Declaration>
    <Declaration>
        <Class IRI="http://www.w3id.org/VerbNet/average.v.03"/>
    </Declaration>
    <Declaration>
        <Class IRI="http://www.w3id.org/VerbNet/avoid-52"/>
    </Declaration>
    <Declaration>
        <Class IRI="http://www.w3id.org/VerbNet/avoid.v.01"/>
    </Declaration>
    <Declaration>
        <Class IRI="http://www.w3id.org/VerbNet/avoid.v.03"/>
    </Declaration>
    <Declaration>
        <Class IRI="http://www.w3id.org/VerbNet/awaken.v.01"/>
    </Declaration>
    <Declaration>
        <Class IRI="http://www.w3id.org/VerbNet/back.v.02"/>
    </Declaration>
    <Declaration>
        <Class IRI="http://www.w3id.org/VerbNet/back_up.v.02"/>
    </Declaration>
    <Declaration>
        <Class IRI="http://www.w3id.org/VerbNet/backslap.v.01"/>
    </Declaration>
    <Declaration>
        <Class IRI="http://www.w3id.org/VerbNet/bail.v.04"/>
    </Declaration>
    <Declaration>
        <Class IRI="http://www.w3id.org/VerbNet/bail.v.05"/>
    </Declaration>
    <Declaration>
        <Class IRI="http://www.w3id.org/VerbNet/bang.v.02"/>
    </Declaration>
    <Declaration>
        <Class IRI="http://www.w3id.org/VerbNet/bang.v.04"/>
    </Declaration>
    <Declaration>
        <Class IRI="http://www.w3id.org/VerbNet/bang_up.v.01"/>
    </Declaration>
    <Declaration>
        <Class IRI="http://www.w3id.org/VerbNet/banish-10.2"/>
    </Declaration>
    <Declaration>
        <Class IRI="http://www.w3id.org/VerbNet/bark.v.01"/>
    </Declaration>
    <Declaration>
        <Class IRI="http://www.w3id.org/VerbNet/bark.v.03"/>
    </Declaration>
    <Declaration>
        <Class IRI="http://www.w3id.org/VerbNet/bark.v.04"/>
    </Declaration>
    <Declaration>
        <Class IRI="http://www.w3id.org/VerbNet/bat.v.02"/>
    </Declaration>
    <Declaration>
        <Class IRI="http://www.w3id.org/VerbNet/bate.v.02"/>
    </Declaration>
    <Declaration>
        <Class IRI="http://www.w3id.org/VerbNet/battle-36.4-1"/>
    </Declaration>
    <Declaration>
        <Class IRI="http://www.w3id.org/VerbNet/battle.v.01"/>
    </Declaration>
    <Declaration>
        <Class IRI="http://www.w3id.org/VerbNet/bawl.v.01"/>
    </Declaration>
    <Declaration>
        <Class IRI="http://www.w3id.org/VerbNet/beam.v.01"/>
    </Declaration>
    <Declaration>
        <Class IRI="http://www.w3id.org/VerbNet/beam.v.03"/>
    </Declaration>
    <Declaration>
        <Class IRI="http://www.w3id.org/VerbNet/beat.v.02"/>
    </Declaration>
    <Declaration>
        <Class IRI="http://www.w3id.org/VerbNet/beat.v.05"/>
    </Declaration>
    <Declaration>
        <Class IRI="http://www.w3id.org/VerbNet/beat.v.10"/>
    </Declaration>
    <Declaration>
        <Class IRI="http://www.w3id.org/VerbNet/beat.v.11"/>
    </Declaration>
    <Declaration>
        <Class IRI="http://www.w3id.org/VerbNet/beat.v.20"/>
    </Declaration>
    <Declaration>
        <Class IRI="http://www.w3id.org/VerbNet/beat_out.v.02"/>
    </Declaration>
    <Declaration>
        <Class IRI="http://www.w3id.org/VerbNet/beckon.v.01"/>
    </Declaration>
    <Declaration>
        <Class IRI="http://www.w3id.org/VerbNet/become.v.01"/>
    </Declaration>
    <Declaration>
        <Class IRI="http://www.w3id.org/VerbNet/bed_down.v.01"/>
    </Declaration>
    <Declaration>
        <Class IRI="http://www.w3id.org/VerbNet/begin-55.1-1"/>
    </Declaration>
    <Declaration>
        <Class IRI="http://www.w3id.org/VerbNet/begin.v.02"/>
    </Declaration>
    <Declaration>
        <Class IRI="http://www.w3id.org/VerbNet/begin.v.03"/>
    </Declaration>
    <Declaration>
        <Class IRI="http://www.w3id.org/VerbNet/begin.v.06"/>
    </Declaration>
    <Declaration>
        <Class IRI="http://www.w3id.org/VerbNet/begin.v.08"/>
    </Declaration>
    <Declaration>
        <Class IRI="http://www.w3id.org/VerbNet/begin.v.09"/>
    </Declaration>
    <Declaration>
        <Class IRI="http://www.w3id.org/VerbNet/believe.v.01"/>
    </Declaration>
    <Declaration>
        <Class IRI="http://www.w3id.org/VerbNet/bellow.v.02"/>
    </Declaration>
    <Declaration>
        <Class IRI="http://www.w3id.org/VerbNet/bend-45.2"/>
    </Declaration>
    <Declaration>
        <Class IRI="http://www.w3id.org/VerbNet/bend.v.01"/>
    </Declaration>
    <Declaration>
        <Class IRI="http://www.w3id.org/VerbNet/bequeath.v.01"/>
    </Declaration>
    <Declaration>
        <Class IRI="http://www.w3id.org/VerbNet/berry-13.7"/>
    </Declaration>
    <Declaration>
        <Class IRI="http://www.w3id.org/VerbNet/bet.v.02"/>
    </Declaration>
    <Declaration>
        <Class IRI="http://www.w3id.org/VerbNet/beware.v.01"/>
    </Declaration>
    <Declaration>
        <Class IRI="http://www.w3id.org/VerbNet/bewilder.v.02"/>
    </Declaration>
    <Declaration>
        <Class IRI="http://www.w3id.org/VerbNet/bicycle.v.01"/>
    </Declaration>
    <Declaration>
        <Class IRI="http://www.w3id.org/VerbNet/bill-54.5"/>
    </Declaration>
    <Declaration>
        <Class IRI="http://www.w3id.org/VerbNet/bite.v.01"/>
    </Declaration>
    <Declaration>
        <Class IRI="http://www.w3id.org/VerbNet/blast.v.01"/>
    </Declaration>
    <Declaration>
        <Class IRI="http://www.w3id.org/VerbNet/blast_off.v.01"/>
    </Declaration>
    <Declaration>
        <Class IRI="http://www.w3id.org/VerbNet/bleat.v.02"/>
    </Declaration>
    <Declaration>
        <Class IRI="http://www.w3id.org/VerbNet/bleed.v.02"/>
    </Declaration>
    <Declaration>
        <Class IRI="http://www.w3id.org/VerbNet/bleed.v.03"/>
    </Declaration>
    <Declaration>
        <Class IRI="http://www.w3id.org/VerbNet/bleed.v.05"/>
    </Declaration>
    <Declaration>
        <Class IRI="http://www.w3id.org/VerbNet/bleep.v.01"/>
    </Declaration>
    <Declaration>
        <Class IRI="http://www.w3id.org/VerbNet/blink.v.01"/>
    </Declaration>
    <Declaration>
        <Class IRI="http://www.w3id.org/VerbNet/blockade.v.03"/>
    </Declaration>
    <Declaration>
        <Class IRI="http://www.w3id.org/VerbNet/blow.v.02"/>
    </Declaration>
    <Declaration>
        <Class IRI="http://www.w3id.org/VerbNet/blow.v.03"/>
    </Declaration>
    <Declaration>
        <Class IRI="http://www.w3id.org/VerbNet/blow.v.06"/>
    </Declaration>
    <Declaration>
        <Class IRI="http://www.w3id.org/VerbNet/blow.v.14"/>
    </Declaration>
    <Declaration>
        <Class IRI="http://www.w3id.org/VerbNet/blow_out.v.01"/>
    </Declaration>
    <Declaration>
        <Class IRI="http://www.w3id.org/VerbNet/blush.v.01"/>
    </Declaration>
    <Declaration>
        <Class IRI="http://www.w3id.org/VerbNet/boast.v.01"/>
    </Declaration>
    <Declaration>
        <Class IRI="http://www.w3id.org/VerbNet/bob.v.01"/>
    </Declaration>
    <Declaration>
        <Class IRI="http://www.w3id.org/VerbNet/bob.v.05"/>
    </Declaration>
    <Declaration>