<?xml version="1.0"?>
<rdf:RDF xmlns:rdf="http://www.w3.org/1999/02/22-rdf-syntax-ns#"
         xmlns:xsd="http://www.w3.org/2001/XMLSchema#"
         xmlns:rdfs="http://www.w3.org/2000/01/rdf-schema#"
         xmlns:owl="http://www.w3.org/2002/07/owl#"
         xml:base="http://www.w3id.org/VNsounds/ontology/"
         xmlns="http://www.w3id.org/VNsounds/ontology/">

<owl:Ontology rdf:about="http://www.w3id.org/VNsounds/ontology"/>

<owl:ObjectProperty rdf:about="hasMaterial">
  <owl:inverseOf rdf:resource="isMaterialOf"/>
  <rdfs:domain rdf:resource="SoundMechanism"/>
  <rdfs:range rdf:resource="SoundMaterial"/>
</owl:ObjectProperty>

<owl:ObjectProperty rdf:about="isMaterialOf">
  <rdfs:domain rdf:resource="SoundMaterial"/>
  <rdfs:range rdf:resource="SoundMechanism"/>
</owl:ObjectProperty>

<owl:ObjectProperty rdf:about="hasMechanism">
  <owl:inverseOf rdf:resource="isMechanismOf"/>
  <rdfs:domain rdf:resource="http://www.w3id.org/VerbNet/SoundAction"/>
  <rdfs:range rdf:resource="SoundMechanism"/>
</owl:ObjectProperty>

<owl:ObjectProperty rdf:about="isMechanismOf">
  <rdfs:domain rdf:resource="SoundMechanism"/>
  <rdfs:range rdf:resource="http://www.w3id.org/VerbNet/SoundAction"/>
</owl:ObjectProperty>

<owl:Class rdf:about="SoundMechanism">
  <rdfs:subClassOf rdf:resource="http://www.w3.org/2002/07/owl#Thing"/>
</owl:Class>

<owl:Class rdf:about="SoundMaterial">
  <rdfs:subClassOf rdf:resource="http://www.w3.org/2002/07/owl#Thing"/>
</owl:Class>

<owl:Class rdf:about="http://www.w3id.org/VerbNet/SoundAction"/>

<owl:Class rdf:about="AeroDynamicMechanism">
  <owl:equivalentClass>
    <owl:Class>
      <owl:intersectionOf rdf:parseType="Collection">
        <rdf:Description rdf:about="SoundMechanism"/>
        <owl:Restriction>
          <owl:onProperty rdf:resource="hasMaterial"/>
          <owl:someValuesFrom rdf:resource="Gas"/>
        </owl:Restriction>
      </owl:intersectionOf>
    </owl:Class>
  </owl:equivalentClass>
  <rdfs:subClassOf rdf:resource="SoundMechanism"/>
</owl:Class>

<owl:Class rdf:about="Gas">
  <rdfs:subClassOf rdf:resource="SoundMaterial"/>
</owl:Class>

<owl:Class rdf:about="Bubble">
  <rdfs:subClassOf rdf:resource="LiquidDynamicMechanism"/>
</owl:Class>

<owl:Class rdf:about="LiquidDynamicMechanism">
  <owl:equivalentClass>
    <owl:Class>
      <owl:intersectionOf rdf:parseType="Collection">
        <rdf:Description rdf:about="SoundMechanism"/>
        <owl:Restriction>
          <owl:onProperty rdf:resource="hasMaterial"/>
          <owl:someValuesFrom rdf:resource="Liquid"/>
        </owl:Restriction>
      </owl:intersectionOf>
    </owl:Class>
  </owl:equivalentClass>
  <rdfs:subClassOf rdf:resource="SoundMechanism"/>
</owl:Class>

<owl:Class rdf:about="Burst">
  <rdfs:subClassOf rdf:resource="UnconstrainedAirFlow"/>
</owl:Class>

<owl:Class rdf:about="UnconstrainedAirFlow">
  <rdfs:subClassOf rdf:resource="AeroDynamicMechanism"/>
</owl:Class>

<owl:Class rdf:about="ConstrainedAirFlow">
  <rdfs:subClassOf rdf:resource="AeroDynamicMechanism"/>
  <owl:disjointWith rdf:resource="UnconstrainedAirFlow"/>
</owl:Class>

<owl:Class rdf:about="Continous">
  <rdfs:subClassOf rdf:resource="SoundRecurrence"/>
</owl:Class>

<owl:Class rdf:about="SoundRecurrence">
  <rdfs:subClassOf rdf:resource="SoundAcoustics"/>
</owl:Class>

<owl:Class rdf:about="Cut">
  <rdfs:subClassOf rdf:resource="SolidDynamicMechanism"/>
</owl:Class>

<owl:Class rdf:about="SolidDynamicMechanism">
  <owl:equivalentClass>
    <owl:Class>
      <owl:intersectionOf rdf:parseType="Collection">
        <rdf:Description rdf:about="SoundMechanism"/>
        <owl:Restriction>
          <owl:onProperty rdf:resource="hasMaterial"/>
          <owl:someValuesFrom rdf:resource="Solid"/>
        </owl:Restriction>
      </owl:intersectionOf>
    </owl:Class>
  </owl:equivalentClass>
  <rdfs:subClassOf rdf:resource="SoundMechanism"/>
</owl:Class>

<owl:Class rdf:about="Drip">
  <rdfs:subClassOf rdf:resource="LiquidDynamicMechanism"/>
</owl:Class>

<owl:Class rdf:about="Eject">
  <rdfs:subClassOf rdf:resource="UnconstrainedAirFlow"/>
</owl:Class>

<owl:Class rdf:about="ElectricMechanism">
  <rdfs:subClassOf rdf:resource="SoundMechanism"/>
</owl:Class>

<owl:Class rdf:about="Expansion">
  <rdfs:subClassOf rdf:resource="UnconstrainedAirFlow"/>
</owl:Class>

<owl:Class rdf:about="Explosion">
  <rdfs:subClassOf rdf:resource="UnconstrainedAirFlow"/>
</owl:Class>

<owl:Class rdf:about="Fill">
  <rdfs:subClassOf rdf:resource="LiquidDynamicMechanism"/>
</owl:Class>

<owl:Class rdf:about="Flow">
  <rdfs:subClassOf rdf:resource="LiquidDynamicMechanism"/>
</owl:Class>

<owl:Class rdf:about="Friction">
  <rdfs:subClassOf rdf:resource="SolidDynamicMechanism"/>
</owl:Class>

<owl:Class rdf:about="Gusts">
  <rdfs:subClassOf rdf:resource="ConstrainedAirFlow"/>
</owl:Class>

<owl:Class rdf:about="Hiss">
  <rdfs:subClassOf rdf:resource="ConstrainedAirFlow"/>
</owl:Class>

<owl:Class rdf:about="Impact">
  <rdfs:subClassOf rdf:resource="SolidDynamicMechanism"/>
</owl:Class>

<owl:Class rdf:about="Liquid">
  <rdfs:subClassOf rdf:resource="SoundMaterial"/>
</owl:Class>

<owl:Class rdf:about="Movement">
  <rdfs:subClassOf rdf:resource="SoundAttribute"/>
</owl:Class>

<owl:Class rdf:about="SoundAttribute"/>

<owl:Class rdf:about="Patterned">
  <rdfs:subClassOf rdf:resource="SoundRegularity"/>
</owl:Class>

<owl:Class rdf:about="SoundRegularity">
  <rdfs:subClassOf rdf:resource="SoundAcoustics"/>
</owl:Class>

<owl:Class rdf:about="Periodic">
  <rdfs:subClassOf rdf:resource="SoundRegularity"/>
</owl:Class>

<owl:Class rdf:about="Pour">
  <rdfs:subClassOf rdf:resource="LiquidDynamicMechanism"/>
</owl:Class>

<owl:Class rdf:about="Random">
  <rdfs:subClassOf rdf:resource="SoundRegularity"/>
</owl:Class>

<owl:Class rdf:about="Ripple">
  <rdfs:subClassOf rdf:resource="LiquidDynamicMechanism"/>
</owl:Class>

<owl:Class rdf:about="Roll">
  <rdfs:subClassOf rdf:resource="SolidDynamicMechanism"/>
</owl:Class>

<owl:Class rdf:about="Scrape">
  <rdfs:subClassOf rdf:resource="SolidDynamicMechanism"/>
</owl:Class>

<owl:Class rdf:about="Sequence">
  <rdfs:subClassOf rdf:resource="SoundRecurrence"/>
</owl:Class>

<owl:Class rdf:about="Single">
  <rdfs:subClassOf rdf:resource="SoundRecurrence"/>
</owl:Class>

<owl:Class rdf:about="Solid">
  <rdfs:subClassOf rdf:resource="SoundMaterial"/>
</owl:Class>

<owl:Class rdf:about="SoundAcoustics"/>

<owl:Class rdf:about="SoundContext"/>

<owl:Class rdf:about="SoundSource"/>

<owl:Class rdf:about="Splash">
  <rdfs:subClassOf rdf:resource="LiquidDynamicMechanism"/>
</owl:Class>

<owl:Class rdf:about="Spray">
  <rdfs:subClassOf rdf:resource="LiquidDynamicMechanism"/>
</owl:Class>

<owl:Class rdf:about="Static">
  <rdfs:subClassOf rdf:resource="SoundAttribute"/>
</owl:Class>

<owl:Class rdf:about="Vocal">
  <rdfs:subClassOf rdf:resource="ConstrainedAirFlow"/>
</owl:Class>

<owl:Class rdf:about="Wind">
  <rdfs:subClassOf rdf:resource="UnconstrainedAirFlow"/>
</owl:Class>

<owl:Class rdf:about="bray">
  <rdfs:subClassOf rdf:resource="http://www.w3id.org/VerbNet/animal_sounds-38"/>
</owl:Class>

<owl:Class rdf:about="http://www.w3id.org/VerbNet/animal_sounds-38">
  <rdfs:subClassOf rdf:resource="http://www.w3id.org/VerbNet/Sounds_Made_by_Animals"/>
</owl:Class>

<owl:Class rdf:about="chirp">
  <rdfs:subClassOf rdf:resource="http://www.w3id.org/VerbNet/animal_sounds-38"/>
</owl:Class>

<owl:Class rdf:about="crackle">
  <rdfs:subClassOf rdf:resource="http://www.w3id.org/VerbNet/sound_emission-43.2"/>
</owl:Class>

<owl:Class rdf:about="http://www.w3id.org/VerbNet/sound_emission-43.2">
  <rdfs:subClassOf rdf:resource="http://www.w3id.org/VerbNet/Emission"/>
</owl:Class>

<owl:Class rdf:about="crumple">
  <rdfs:subClassOf rdf:resource="http://www.w3id.org/VerbNet/other_cos-45.4"/>
</owl:Class>

<owl:Class rdf:about="http://www.w3id.org/VerbNet/other_cos-45.4">
  <rdfs:subClassOf rdf:resource="http://www.w3id.org/VerbNet/Change_of_State"/>
</owl:Class>

<owl:Class rdf:about="fart">
  <rdfs:subClassOf rdf:resource="http://www.w3id.org/VerbNet/nonverbal_expression-40.2"/>
</owl:Class>

<owl:Class rdf:about="http://www.w3id.org/VerbNet/nonverbal_expression-40.2">
  <rdfs:subClassOf rdf:resource="http://www.w3id.org/VerbNet/Involving_the_Body"/>
</owl:Class>

<owl:Class rdf:about="flutter">
  <rdfs:subClassOf rdf:resource="http://www.w3id.org/VerbNet/animal_sounds-38"/>
</owl:Class>

<owl:Class rdf:about="jingle">
  <rdfs:subClassOf rdf:resource="http://www.w3id.org/VerbNet/sound_emission-43.2"/>
</owl:Class>

<owl:Class rdf:about="snore">
  <rdfs:subClassOf rdf:resource="http://www.w3id.org/VerbNet/nonverbal_expression-40.2"/>
</owl:Class>

<owl:Class rdf:about="10.x">
  <rdfs:subClassOf rdf:resource="http://www.w3id.org/VerbNet/Removing"/>
</owl:Class>

<owl:Class rdf:about="http://www.w3id.org/VerbNet/Removing">
  <rdfs:subClassOf rdf:resource="http://www.w3id.org/VerbNet/SoundAction"/>
</owl:Class>

<owl:Class rdf:about="11.x">
  <rdfs:subClassOf rdf:resource="http://www.w3id.org/VerbNet/Sending_and_Carrying"/>
</owl:Class>

<owl:Class rdf:about="http://www.w3id.org/VerbNet/Sending_and_Carrying">
  <rdfs:subClassOf rdf:resource="http://www.w3id.org/VerbNet/SoundAction"/>
</owl:Class>

<owl:Class rdf:about="12.x">
  <rdfs:subClassOf rdf:resource="http://www.w3id.org/VerbNet/Exerting_Force_Push_Pull"/>
</owl:Class>

<owl:Class rdf:about="http://www.w3id.org/VerbNet/Exerting_Force_Push_Pull">
  <rdfs:subClassOf rdf:resource="http://www.w3id.org/VerbNet/SoundAction"/>
</owl:Class>

<owl:Class rdf:about="13.x">
  <rdfs:subClassOf rdf:resource="http://www.w3id.org/VerbNet/Change_of_Possession"/>
</owl:Class>

<owl:Class rdf:about="http://www.w3id.org/VerbNet/Change_of_Possession">
  <rdfs:subClassOf rdf:resource="http://www.w3id.org/VerbNet/SoundAction"/>
</owl:Class>

<owl:Class rdf:about="15.x">
  <rdfs:subClassOf rdf:resource="http://www.w3id.org/VerbNet/Hold_and_Keep"/>
</owl:Class>

<owl:Class rdf:about="http://www.w3id.org/VerbNet/Hold_and_Keep">
  <rdfs:subClassOf rdf:resource="http://www.w3id.org/VerbNet/SoundAction"/>
</owl:Class>

<owl:Class rdf:about="16.x">
  <rdfs:subClassOf rdf:resource="http://www.w3id.org/VerbNet/Concealment"/>
</owl:Class>

<owl:Class rdf:about="http://www.w3id.org/VerbNet/Concealment">
  <rdfs:subClassOf rdf:resource="http://www.w3id.org/VerbNet/SoundAction"/>
</owl:Class>

<owl:Class rdf:about="17.x">
  <rdfs:subClassOf rdf:resource="http://www.w3id.org/VerbNet/Throwing"/>
</owl:Class>

<owl:Class rdf:about="http://www.w3id.org/VerbNet/Throwing">
  <rdfs:subClassOf rdf:resource="http://www.w3id.org/VerbNet/SoundAction"/>
</owl:Class>

<owl:Class rdf:about="18.x">
  <rdfs:subClassOf rdf:resource="http://www.w3id.org/VerbNet/Contact_by_Impact"/>
</owl:Class>

<owl:Class rdf:about="http://www.w3id.org/VerbNet/Contact_by_Impact">
  <rdfs:subClassOf rdf:resource="http://www.w3id.org/VerbNet/SoundAction"/>
</owl:Class>

<owl:Class rdf:about="20.x">
  <rdfs:subClassOf rdf:resource="http://www.w3id.org/VerbNet/Contact_Touch"/>
</owl:Class>

<owl:Class rdf:about="http://www.w3id.org/VerbNet/Contact_Touch">
  <rdfs:subClassOf rdf:resource="http://www.w3id.org/VerbNet/SoundAction"/>
</owl:Class>

<owl:Class rdf:about="21.x">
  <rdfs:subClassOf rdf:resource="http://www.w3id.org/VerbNet/Cutting"/>
</owl:Class>

<owl:Class rdf:about="http://www.w3id.org/VerbNet/Cutting">
  <rdfs:subClassOf rdf:resource="http://www.w3id.org/VerbNet/SoundAction"/>
</owl:Class>

<owl:Class rdf:about="22.x">
  <rdfs:subClassOf rdf:resource="http://www.w3id.org/VerbNet/Combining_and_Attaching"/>
</owl:Class>

<owl:Class rdf:about="http://www.w3id.org/VerbNet/Combining_and_Attaching">
  <rdfs:subClassOf rdf:resource="http://www.w3id.org/VerbNet/SoundAction"/>
</owl:Class>

<owl:Class rdf:about="23.x">
  <rdfs:subClassOf rdf:resource="http://www.w3id.org/VerbNet/Separating_and_Disassembling"/>
</owl:Class>

<owl:Class rdf:about="http://www.w3id.org/VerbNet/Separating_and_Disassembling">
  <rdfs:subClassOf rdf:resource="http://www.w3id.org/VerbNet/SoundAction"/>
</owl:Class>

<owl:Class rdf:about="25.x">
  <rdfs:subClassOf rdf:resource="http://www.w3id.org/VerbNet/Image_Creation"/>
</owl:Class>

<owl:Class rdf:about="http://www.w3id.org/VerbNet/Image_Creation">
  <rdfs:subClassOf rdf:resource="http://www.w3id.org/VerbNet/SoundAction"/>
</owl:Class>

<owl:Class rdf:about="26.x">
  <rdfs:subClassOf rdf:resource="http://www.w3id.org/VerbNet/Creation_and_Transformation"/>
</owl:Class>

<owl:Class rdf:about="http://www.w3id.org/VerbNet/Creation_and_Transformation">
  <rdfs:subClassOf rdf:resource="http://www.w3id.org/VerbNet/SoundAction"/>
</owl:Class>

<owl:Class rdf:about="27.x">
  <rdfs:subClassOf rdf:resource="http://www.w3id.org/VerbNet/Engender"/>
</owl:Class>

<owl:Class rdf:about="http://www.w3id.org/VerbNet/Engender">
  <rdfs:subClassOf rdf:resource="http://www.w3id.org/VerbNet/SoundAction"/>
</owl:Class>

<owl:Class rdf:about="29.x">
  <rdfs:subClassOf rdf:resource="http://www.w3id.org/VerbNet/Predicative_Complements"/>
</owl:Class>

<owl:Class rdf:about="http://www.w3id.org/VerbNet/Predicative_Complements">
  <rdfs:subClassOf rdf:resource="http://www.w3id.org/VerbNet/SoundAction"/>
</owl:Class>

<owl:Class rdf:about="30.x">
  <rdfs:subClassOf rdf:resource="http://www.w3id.org/VerbNet/Perception"/>
</owl:Class>

<owl:Class rdf:about="http://www.w3id.org/VerbNet/Perception">
  <rdfs:subClassOf rdf:resource="http://www.w3id.org/VerbNet/SoundAction"/>
</owl:Class>

<owl:Class rdf:about="31.x">
  <rdfs:subClassOf rdf:resource="http://www.w3id.org/VerbNet/Psychological_State"/>
</owl:Class>

<owl:Class rdf:about="http://www.w3id.org/VerbNet/Psychological_State">
  <rdfs:subClassOf rdf:resource="http://www.w3id.org/VerbNet/SoundAction"/>
</owl:Class>

<owl:Class rdf:about="32.x">
  <rdfs:subClassOf rdf:resource="http://www.w3id.org/VerbNet/Desire"/>
</owl:Class>

<owl:Class rdf:about="http://www.w3id.org/VerbNet/Desire">
  <rdfs:subClassOf rdf:resource="http://www.w3id.org/VerbNet/SoundAction"/>
</owl:Class>

<owl:Class rdf:about="33.x">
  <rdfs:subClassOf rdf:resource="http://www.w3id.org/VerbNet/Judgement"/>
</owl:Class>

<owl:Class rdf:about="http://www.w3id.org/VerbNet/Judgement">
  <rdfs:subClassOf rdf:resource="http://www.w3id.org/VerbNet/SoundAction"/>
</owl:Class>

<owl:Class rdf:about="34.x">
  <rdfs:subClassOf rdf:resource="http://www.w3id.org/VerbNet/Assessment"/>
</owl:Class>

<owl:Class rdf:about="http://www.w3id.org/VerbNet/Assessment">
  <rdfs:subClassOf rdf:resource="http://www.w3id.org/VerbNet/SoundAction"/>
</owl:Class>

<owl:Class rdf:about="35.x">
  <rdfs:subClassOf rdf:resource="http://www.w3id.org/VerbNet/Searching"/>
</owl:Class>

<owl:Class rdf:about="http://www.w3id.org/VerbNet/Searching">
  <rdfs:subClassOf rdf:resource="http://www.w3id.org/VerbNet/SoundAction"/>
</owl:Class>

<owl:Class rdf:about="36.x">
  <rdfs:subClassOf rdf:resource="http://www.w3id.org/VerbNet/Social_Interaction"/>
</owl:Class>

<owl:Class rdf:about="http://www.w3id.org/VerbNet/Social_Interaction">
  <rdfs:subClassOf rdf:resource="http://www.w3id.org/VerbNet/SoundAction"/>
</owl:Class>

<owl:Class rdf:about="37.x">
  <rdfs:subClassOf rdf:resource="http://www.w3id.org/VerbNet/Communication"/>
</owl:Class>

<owl:Class rdf:about="http://www.w3id.org/VerbNet/Communication">
  <rdfs:subClassOf rdf:resource="http://www.w3id.org/VerbNet/SoundAction"/>
</owl:Class>

<owl:Class rdf:about="39.x">
  <rdfs:subClassOf rdf:resource="http://www.w3id.org/VerbNet/Ingesting"/>
</owl:Class>

<owl:Class rdf:about="http://www.w3id.org/VerbNet/Ingesting">
  <rdfs:subClassOf rdf:resource="http://www.w3id.org/VerbNet/SoundAction"/>
</owl:Class>

<owl:Class rdf:about="40.x">
  <rdfs:subClassOf rdf:resource="http://www.w3id.org/VerbNet/Involving_the_Body"/>
</owl:Class>

<owl:Class rdf:about="http://www.w3id.org/VerbNet/Involving_the_Body">
  <rdfs:subClassOf rdf:resource="http://www.w3id.org/VerbNet/SoundAction"/>
</owl:Class>

<owl:Class rdf:about="41.x">
  <rdfs:subClassOf rdf:resource="http://www.w3id.org/VerbNet/Grooming_and_Bodily_Care"/>
</owl:Class>

<owl:Class rdf:about="http://www.w3id.org/VerbNet/Grooming_and_Bodily_Care">
  <rdfs:subClassOf rdf:resource="http://www.w3id.org/VerbNet/SoundAction"/>
</owl:Class>

<owl:Class rdf:about="42.x">
  <rdfs:subClassOf rdf:resource="http://www.w3id.org/VerbNet/Killing"/>
</owl:Class>

<owl:Class rdf:about="http://www.w3id.org/VerbNet/Killing">
  <rdfs:subClassOf rdf:resource="http://www.w3id.org/VerbNet/SoundAction"/>
</owl:Class>

<owl:Class rdf:about="43.x">
  <rdfs:subClassOf rdf:resource="http://www.w3id.org/VerbNet/Emission"/>
</owl:Class>

<owl:Class rdf:about="http://www.w3id.org/VerbNet/Emission">
  <rdfs:subClassOf rdf:resource="http://www.w3id.org/VerbNet/SoundAction"/>
</owl:Class>

<owl:Class rdf:about="44.x">
  <rdfs:subClassOf rdf:resource="http://www.w3id.org/VerbNet/Destroy"/>
</owl:Class>

<owl:Class rdf:about="http://www.w3id.org/VerbNet/Destroy">
  <rdfs:subClassOf rdf:resource="http://www.w3id.org/VerbNet/SoundAction"/>
</owl:Class>

<owl:Class rdf:about="45.x">
  <rdfs:subClassOf rdf:resource="http://www.w3id.org/VerbNet/Change_of_State"/>
</owl:Class>

<owl:Class rdf:about="http://www.w3id.org/VerbNet/Change_of_State">
  <rdfs:subClassOf rdf:resource="http://www.w3id.org/VerbNet/SoundAction"/>
</owl:Class>

<owl:Class rdf:about="46.x">
  <rdfs:subClassOf rdf:resource="http://www.w3id.org/VerbNet/Lodge"/>
</owl:Class>

<owl:Class rdf:about="http://www.w3id.org/VerbNet/Lodge">
  <rdfs:subClassOf rdf:resource="http://www.w3id.org/VerbNet/SoundAction"/>
</owl:Class>

<owl:Class rdf:about="47.x">
  <rdfs:subClassOf rdf:resource="http://www.w3id.org/VerbNet/Existence"/>
</owl:Class>

<owl:Class rdf:about="http://www.w3id.org/VerbNet/Existence">
  <rdfs:subClassOf rdf:resource="http://www.w3id.org/VerbNet/SoundAction"/>
</owl:Class>

<owl:Class rdf:about="48.x">
  <rdfs:subClassOf rdf:resource="http://www.w3id.org/VerbNet/Appearance_Disappearance_and_Occurrence"/>
</owl:Class>

<owl:Class rdf:about="http://www.w3id.org/VerbNet/Appearance_Disappearance_and_Occurrence">
  <rdfs:subClassOf rdf:resource="http://www.w3id.org/VerbNet/SoundAction"/>
</owl:Class>

<owl:Class rdf:about="50.x">
  <rdfs:subClassOf rdf:resource="http://www.w3id.org/VerbNet/Assuming_a_Position"/>
</owl:Class>

<owl:Class rdf:about="http://www.w3id.org/VerbNet/Assuming_a_Position">
  <rdfs:subClassOf rdf:resource="http://www.w3id.org/VerbNet/SoundAction"/>
</owl:Class>

<owl:Class rdf:about="51.x">
  <rdfs:subClassOf rdf:resource="http://www.w3id.org/VerbNet/Motion"/>
</owl:Class>

<owl:Class rdf:about="http://www.w3id.org/VerbNet/Motion">
  <rdfs:subClassOf rdf:resource="http://www.w3id.org/VerbNet/SoundAction"/>
</owl:Class>

<owl:Class rdf:about="52.x">
  <rdfs:subClassOf rdf:resource="http://www.w3id.org/VerbNet/Avoid"/>
</owl:Class>

<owl:Class rdf:about="http://www.w3id.org/VerbNet/Avoid">
  <rdfs:subClassOf rdf:resource="http://www.w3id.org/VerbNet/SoundAction"/>
</owl:Class>

<owl:Class rdf:about="54.x">
  <rdfs:subClassOf rdf:resource="http://www.w3id.org/VerbNet/Measure"/>
</owl:Class>

<owl:Class rdf:about="http://www.w3id.org/VerbNet/Measure">
  <rdfs:subClassOf rdf:resource="http://www.w3id.org/VerbNet/SoundAction"/>
</owl:Class>

<owl:Class rdf:about="55.x">
  <rdfs:subClassOf rdf:resource="http://www.w3id.org/VerbNet/Aspectual"/>
</owl:Class>

<owl:Class rdf:about="http://www.w3id.org/VerbNet/Aspectual">
  <rdfs:subClassOf rdf:resource="http://www.w3id.org/VerbNet/SoundAction"/>
</owl:Class>

<owl:Class rdf:about="58.x">
  <rdfs:subClassOf rdf:resource="http://www.w3id.org/VerbNet/Urging_and_Begging"/>
</owl:Class>

<owl:Class rdf:about="http://www.w3id.org/VerbNet/Urging_and_Begging">
  <rdfs:subClassOf rdf:resource="http://www.w3id.org/VerbNet/SoundAction"/>
</owl:Class>

<owl:Class rdf:about="67.x">
  <rdfs:subClassOf rdf:resource="http://www.w3id.org/VerbNet/Forbid"/>
</owl:Class>

<owl:Class rdf:about="http://www.w3id.org/VerbNet/Forbid">
  <rdfs:subClassOf rdf:resource="http://www.w3id.org/VerbNet/SoundAction"/>
</owl:Class>

<owl:Class rdf:about="68.x">
  <rdfs:subClassOf rdf:resource="http://www.w3id.org/VerbNet/Pay"/>
</owl:Class>

<owl:Class rdf:about="http://www.w3id.org/VerbNet/Pay">
  <rdfs:subClassOf rdf:resource="http://www.w3id.org/VerbNet/SoundAction"/>
</owl:Class>

<owl:Class rdf:about="74.x">
  <rdfs:subClassOf rdf:resource="http://www.w3id.org/VerbNet/Succeed"/>
</owl:Class>

<owl:Class rdf:about="http://www.w3id.org/VerbNet/Succeed">
  <rdfs:subClassOf rdf:resource="http://www.w3id.org/VerbNet/SoundAction"/>
</owl:Class>

<owl:Class rdf:about="80.x">
  <rdfs:subClassOf rdf:resource="http://www.w3id.org/VerbNet/Free"/>
</owl:Class>

<owl:Class rdf:about="http://www.w3id.org/VerbNet/Free">
  <rdfs:subClassOf rdf:resource="http://www.w3id.org/VerbNet/SoundAction"/>
</owl:Class>

<owl:Class rdf:about="9.x">
  <rdfs:subClassOf rdf:resource="http://www.w3id.org/VerbNet/Putting"/>
</owl:Class>

<owl:Class rdf:about="http://www.w3id.org/VerbNet/Putting">
  <rdfs:subClassOf rdf:resource="http://www.w3id.org/VerbNet/SoundAction"/>
</owl:Class>

<owl:Class rdf:about="90.x">
  <rdfs:subClassOf rdf:resource="http://www.w3id.org/VerbNet/Exceed"/>
</owl:Class>

<owl:Class rdf:about="http://www.w3id.org/VerbNet/Exceed">
  <rdfs:subClassOf rdf:resource="http://www.w3id.org/VerbNet/SoundAction"/>
</owl:Class>

<owl:Class rdf:about="Deformation/Deformation">
  <rdfs:subClassOf rdf:resource="SolidDynamicMechanism"/>
</owl:Class>

<owl:Class rdf:about="http://www.w3id.org/VerbNet/Body_Internal_Motion">
  <rdfs:subClassOf rdf:resource="http://www.w3id.org/VerbNet/SoundAction"/>
</owl:Class>

<owl:Class rdf:about="http://www.w3id.org/VerbNet/Coloring">
  <rdfs:subClassOf rdf:resource="http://www.w3id.org/VerbNet/SoundAction"/>
</owl:Class>

<owl:Class rdf:about="http://www.w3id.org/VerbNet/Learn_Verbs">
  <rdfs:subClassOf rdf:resource="http://www.w3id.org/VerbNet/SoundAction"/>
</owl:Class>

<owl:Class rdf:about="http://www.w3id.org/VerbNet/Lingering_and_Rushing">
  <rdfs:subClassOf rdf:resource="http://www.w3id.org/VerbNet/SoundAction"/>
</owl:Class>

<owl:Class rdf:about="http://www.w3id.org/VerbNet/Poke_Verbs">
  <rdfs:subClassOf rdf:resource="http://www.w3id.org/VerbNet/SoundAction"/>
</owl:Class>

<owl:Class rdf:about="http://www.w3id.org/VerbNet/Sounds_Made_by_Animals">
  <rdfs:subClassOf rdf:resource="http://www.w3id.org/VerbNet/SoundAction"/>
</owl:Class>

<owl:Class rdf:about="http://www.w3id.org/VerbNet/Weather">
  <rdfs:subClassOf rdf:resource="http://www.w3id.org/VerbNet/SoundAction"/>
</owl:Class>

<owl:Class rdf:about="http://www.w3id.org/VerbNet/abort.v.01">
  <rdfs:subClassOf rdf:resource="55.x"/>
</owl:Class>

<owl:Class rdf:about="http://www.w3id.org/VerbNet/abound.v.02">
  <rdfs:subClassOf rdf:resource="http://www.w3id.org/VerbNet/swarm-47.5.1-2-1"/>
</owl:Class>

<owl:Class rdf:about="http://www.w3id.org/VerbNet/swarm-47.5.1-2-1">
  <rdfs:subClassOf rdf:resource="http://www.w3id.org/VerbNet/Existence"/>
</owl:Class>

<owl:Class rdf:about="http://www.w3id.org/VerbNet/absolve.v.02">
  <rdfs:subClassOf rdf:resource="http://www.w3id.org/VerbNet/cheat-10.6-1-1"/>
</owl:Class>

<owl:Class rdf:about="http://www.w3id.org/VerbNet/cheat-10.6-1-1">
  <rdfs:subClassOf rdf:resource="http://www.w3id.org/VerbNet/Removing"/>
</owl:Class>

<owl:Class rdf:about="http://www.w3id.org/VerbNet/absorb.v.01">
  <rdfs:subClassOf rdf:resource="45.x"/>
</owl:Class>

<owl:Class rdf:about="http://www.w3id.org/VerbNet/absorb.v.04">
  <rdfs:subClassOf rdf:resource="39.x"/>
</owl:Class>

<owl:Class rdf:about="http://www.w3id.org/VerbNet/abuse.v.03">
  <rdfs:subClassOf rdf:resource="http://www.w3id.org/VerbNet/judgement-33"/>
</owl:Class>

<owl:Class rdf:about="http://www.w3id.org/VerbNet/judgement-33">
  <rdfs:subClassOf rdf:resource="http://www.w3id.org/VerbNet/Judgement"/>
</owl:Class>

<owl:Class rdf:about="http://www.w3id.org/VerbNet/accelerate.v.01">
  <rdfs:subClassOf rdf:resource="http://www.w3id.org/VerbNet/other_cos-45.4"/>
</owl:Class>

<owl:Class rdf:about="http://www.w3id.org/VerbNet/accelerate.v.02">
  <rdfs:subClassOf rdf:resource="http://www.w3id.org/VerbNet/other_cos-45.4"/>
</owl:Class>

<owl:Class rdf:about="http://www.w3id.org/VerbNet/accept.v.01">
  <rdfs:subClassOf rdf:resource="http://www.w3id.org/VerbNet/characterize-29.2-1-1"/>
</owl:Class>

<owl:Class rdf:about="http://www.w3id.org/VerbNet/characterize-29.2-1-1">
  <rdfs:subClassOf rdf:resource="http://www.w3id.org/VerbNet/Predicative_Complements"/>
</owl:Class>

<owl:Class rdf:about="http://www.w3id.org/VerbNet/accept.v.02">
  <rdfs:subClassOf rdf:resource="http://www.w3id.org/VerbNet/obtain-13.5.2"/>
</owl:Class>

<owl:Class rdf:about="http://www.w3id.org/VerbNet/obtain-13.5.2">
  <rdfs:subClassOf rdf:resource="http://www.w3id.org/VerbNet/Change_of_Possession"/>
</owl:Class>

<owl:Class rdf:about="http://www.w3id.org/VerbNet/accept.v.03">
  <rdfs:subClassOf rdf:resource="13.x"/>
</owl:Class>

<owl:Class rdf:about="http://www.w3id.org/VerbNet/accept.v.04">
  <rdfs:subClassOf rdf:resource="http://www.w3id.org/VerbNet/characterize-29.2-1-1"/>
</owl:Class>

<owl:Class rdf:about="http://www.w3id.org/VerbNet/accept.v.07">
  <rdfs:subClassOf rdf:resource="http://www.w3id.org/VerbNet/characterize-29.2-1-1"/>
</owl:Class>

<owl:Class rdf:about="http://www.w3id.org/VerbNet/accompany-51.7">
  <rdfs:subClassOf rdf:resource="http://www.w3id.org/VerbNet/Motion"/>
</owl:Class>

<owl:Class rdf:about="http://www.w3id.org/VerbNet/accumulate.v.02">
  <rdfs:subClassOf rdf:resource="http://www.w3id.org/VerbNet/herd-47.5.2"/>
</owl:Class>

<owl:Class rdf:about="http://www.w3id.org/VerbNet/herd-47.5.2">
  <rdfs:subClassOf rdf:resource="http://www.w3id.org/VerbNet/Existence"/>
</owl:Class>

<owl:Class rdf:about="http://www.w3id.org/VerbNet/act.v.01">
  <rdfs:subClassOf rdf:resource="45.x"/>
</owl:Class>

<owl:Class rdf:about="http://www.w3id.org/VerbNet/act.v.02">
  <rdfs:subClassOf rdf:resource="http://www.w3id.org/VerbNet/masquerade-29.6-1"/>
</owl:Class>

<owl:Class rdf:about="http://www.w3id.org/VerbNet/masquerade-29.6-1">
  <rdfs:subClassOf rdf:resource="http://www.w3id.org/VerbNet/Predicative_Complements"/>
</owl:Class>

<owl:Class rdf:about="http://www.w3id.org/VerbNet/act.v.03">
  <rdfs:subClassOf rdf:resource="29.x"/>
</owl:Class>

<owl:Class rdf:about="http://www.w3id.org/VerbNet/act.v.04">
  <rdfs:subClassOf rdf:resource="http://www.w3id.org/VerbNet/masquerade-29.6-1"/>
</owl:Class>

<owl:Class rdf:about="http://www.w3id.org/VerbNet/activate.v.02">
  <rdfs:subClassOf rdf:resource="45.x"/>
</owl:Class>

<owl:Class rdf:about="http://www.w3id.org/VerbNet/add.v.01">
  <rdfs:subClassOf rdf:resource="http://www.w3id.org/VerbNet/mix-22.1-2"/>
</owl:Class>

<owl:Class rdf:about="http://www.w3id.org/VerbNet/mix-22.1-2">
  <rdfs:subClassOf rdf:resource="http://www.w3id.org/VerbNet/Combining_and_Attaching"/>
</owl:Class>

<owl:Class rdf:about="http://www.w3id.org/VerbNet/add_to.v.01">
  <rdfs:subClassOf rdf:resource="22.x"/>
</owl:Class>

<owl:Class rdf:about="http://www.w3id.org/VerbNet/address.v.03">
  <rdfs:subClassOf rdf:resource="http://www.w3id.org/VerbNet/illustrate-25.3"/>
</owl:Class>

<owl:Class rdf:about="http://www.w3id.org/VerbNet/illustrate-25.3">
  <rdfs:subClassOf rdf:resource="http://www.w3id.org/VerbNet/Image_Creation"/>
</owl:Class>

<owl:Class rdf:about="http://www.w3id.org/VerbNet/adjust.v.01">
  <rdfs:subClassOf rdf:resource="26.x"/>
</owl:Class>

<owl:Class rdf:about="http://www.w3id.org/VerbNet/administer.v.04">
  <rdfs:subClassOf rdf:resource="http://www.w3id.org/VerbNet/contribute-13.2-1-1"/>
</owl:Class>

<owl:Class rdf:about="http://www.w3id.org/VerbNet/contribute-13.2-1-1">
  <rdfs:subClassOf rdf:resource="http://www.w3id.org/VerbNet/Change_of_Possession"/>
</owl:Class>

<owl:Class rdf:about="http://www.w3id.org/VerbNet/admire-31.2">
  <rdfs:subClassOf rdf:resource="http://www.w3id.org/VerbNet/Psychological_State"/>
</owl:Class>

<owl:Class rdf:about="http://www.w3id.org/VerbNet/admire-31.2-1">
  <rdfs:subClassOf rdf:resource="http://www.w3id.org/VerbNet/Psychological_State"/>
</owl:Class>

<owl:Class rdf:about="http://www.w3id.org/VerbNet/adopt.v.01">
  <rdfs:subClassOf rdf:resource="http://www.w3id.org/VerbNet/appoint-29.1"/>
</owl:Class>

<owl:Class rdf:about="http://www.w3id.org/VerbNet/appoint-29.1">
  <rdfs:subClassOf rdf:resource="http://www.w3id.org/VerbNet/Predicative_Complements"/>
</owl:Class>

<owl:Class rdf:about="http://www.w3id.org/VerbNet/advance.v.01">
  <rdfs:subClassOf rdf:resource="http://www.w3id.org/VerbNet/escape-51.1-2"/>
</owl:Class>

<owl:Class rdf:about="http://www.w3id.org/VerbNet/escape-51.1-2">
  <rdfs:subClassOf rdf:resource="http://www.w3id.org/VerbNet/Motion"/>
</owl:Class>

<owl:Class rdf:about="http://www.w3id.org/VerbNet/advance.v.08">
  <rdfs:subClassOf rdf:resource="http://www.w3id.org/VerbNet/other_cos-45.4"/>
</owl:Class>

<owl:Class rdf:about="http://www.w3id.org/VerbNet/advance.v.10">
  <rdfs:subClassOf rdf:resource="http://www.w3id.org/VerbNet/future_having-13.3"/>
</owl:Class>

<owl:Class rdf:about="http://www.w3id.org/VerbNet/future_having-13.3">
  <rdfs:subClassOf rdf:resource="http://www.w3id.org/VerbNet/Change_of_Possession"/>
</owl:Class>

<owl:Class rdf:about="http://www.w3id.org/VerbNet/advance.v.12">
  <rdfs:subClassOf rdf:resource="http://www.w3id.org/VerbNet/other_cos-45.4"/>
</owl:Class>

<owl:Class rdf:about="http://www.w3id.org/VerbNet/advertise.v.02">
  <rdfs:subClassOf rdf:resource="http://www.w3id.org/VerbNet/search-35.2"/>
</owl:Class>

<owl:Class rdf:about="http://www.w3id.org/VerbNet/search-35.2">
  <rdfs:subClassOf rdf:resource="http://www.w3id.org/VerbNet/Searching"/>
</owl:Class>

<owl:Class rdf:about="http://www.w3id.org/VerbNet/advise-37.9">
  <rdfs:subClassOf rdf:resource="http://www.w3id.org/VerbNet/Communication"/>
</owl:Class>
