<?xml version="1.0"?>
<rdf:RDF xmlns="http://www.w3id.org/WN_Reduced/ontology#"
     xml:base="http://www.w3id.org/WN_Reduced/ontology"
     xmlns:owl="http://www.w3.org/2002/07/owl#"
     xmlns:rdf="http://www.w3.org/1999/02/22-rdf-syntax-ns#"
     xmlns:xml="http://www.w3.org/XML/1998/namespace"
     xmlns:xsd="http://www.w3.org/2001/XMLSchema#"
     xmlns:rdfs="http://www.w3.org/2000/01/rdf-schema#">
    <owl:Ontology rdf:about="http://www.w3id.org/WN_Reduced/ontology"/>
    


    <!-- 
    ///////////////////////////////////////////////////////////////////////////////////////
    //
    // Object Properties
    //
    ///////////////////////////////////////////////////////////////////////////////////////
     -->

    


    <!-- http://www.w3id.org/VNsounds/ontology/hasMaterial -->

    <owl:ObjectProperty rdf:about="http://www.w3id.org/VNsounds/ontology/hasMaterial">
        <owl:inverseOf rdf:resource="http://www.w3id.org/VNsounds/ontology/isMaterialOf"/>
        <rdfs:domain rdf:resource="http://www.w3id.org/VNsounds/ontology/SoundMechanism"/>
        <rdfs:range rdf:resource="http://www.w3id.org/VNsounds/ontology/SoundMaterial"/>
    </owl:ObjectProperty>
    


    <!-- http://www.w3id.org/VNsounds/ontology/hasMechanism -->

    <owl:ObjectProperty rdf:about="http://www.w3id.org/VNsounds/ontology/hasMechanism">
        <owl:inverseOf rdf:resource="http://www.w3id.org/VNsounds/ontology/isMechanismOf"/>
        <rdfs:domain rdf:resource="http://www.w3id.org/VerbNet/SoundAction"/>
        <rdfs:range rdf:resource="http://www.w3id.org/VNsounds/ontology/SoundMechanism"/>
    </owl:ObjectProperty>
    


    <!-- http://www.w3id.org/VNsounds/ontology/isMaterialOf -->

    <owl:ObjectProperty rdf:about="http://www.w3id.org/VNsounds/ontology/isMaterialOf"/>
    


    <!-- http://www.w3id.org/VNsounds/ontology/isMechanismOf -->

    <owl:ObjectProperty rdf:about="http://www.w3id.org/VNsounds/ontology/isMechanismOf"/>
    


    <!-- 
    ///////////////////////////////////////////////////////////////////////////////////////
    //
    // Classes
    //
    ///////////////////////////////////////////////////////////////////////////////////////
     -->

    


    <!-- http://www.w3id.org/VNsounds/ontology/AeroDynamicMechanism -->

    <owl:Class rdf:about="http://www.w3id.org/VNsounds/ontology/AeroDynamicMechanism">
        <owl:equivalentClass>
            <owl:Class>
                <owl:intersectionOf rdf:parseType="Collection">
                    <rdf:Description rdf:about="http://www.w3id.org/VNsounds/ontology/SoundMechanism"/>
                    <owl:Restriction>
                        <owl:onProperty rdf:resource="http://www.w3id.org/VNsounds/ontology/hasMaterial"/>
                        <owl:someValuesFrom rdf:resource="http://www.w3id.org/VNsounds/ontology/Gas"/>
                    </owl:Restriction>
                </owl:intersectionOf>
            </owl:Class>
        </owl:equivalentClass>
        <rdfs:subClassOf rdf:resource="http://www.w3id.org/VNsounds/ontology/SoundMechanism"/>
        <rdfs:comment>&quot;aerodynamic sounds are caused by the direct introduction and modification of atmospheric pressure differences from some source&quot; (Gaver, 1993)</rdfs:comment>
    </owl:Class>
    


    <!-- http://www.w3id.org/VNsounds/ontology/Bubble -->

    <owl:Class rdf:about="http://www.w3id.org/VNsounds/ontology/Bubble">
        <rdfs:subClassOf rdf:resource="http://www.w3id.org/VNsounds/ontology/LiquidDynamicMechanism"/>
    </owl:Class>
    


    <!-- http://www.w3id.org/VNsounds/ontology/Burst -->

    <owl:Class rdf:about="http://www.w3id.org/VNsounds/ontology/Burst">
        <rdfs:subClassOf rdf:resource="http://www.w3id.org/VNsounds/ontology/UnconstrainedAirFlow"/>
        <rdfs:comment>come open suddenly and violently, as if from internal pressure (WordNet, burst.v.01)</rdfs:comment>
    </owl:Class>
    


    <!-- http://www.w3id.org/VNsounds/ontology/CombustionEngines -->

    <owl:Class rdf:about="http://www.w3id.org/VNsounds/ontology/CombustionEngines">
        <rdfs:subClassOf rdf:resource="http://www.w3id.org/VNsounds/ontology/SoundMechanism"/>
    </owl:Class>
    


    <!-- http://www.w3id.org/VNsounds/ontology/ConstrainedAirFlow -->

    <owl:Class rdf:about="http://www.w3id.org/VNsounds/ontology/ConstrainedAirFlow">
        <rdfs:subClassOf rdf:resource="http://www.w3id.org/VNsounds/ontology/AeroDynamicMechanism"/>
        <owl:disjointWith rdf:resource="http://www.w3id.org/VNsounds/ontology/UnconstrainedAirFlow"/>
    </owl:Class>
    


    <!-- http://www.w3id.org/VNsounds/ontology/Continous -->

    <owl:Class rdf:about="http://www.w3id.org/VNsounds/ontology/Continous">
        <rdfs:subClassOf rdf:resource="http://www.w3id.org/VNsounds/ontology/SoundRecurrence"/>
    </owl:Class>
    


    <!-- http://www.w3id.org/VNsounds/ontology/Cut -->

    <owl:Class rdf:about="http://www.w3id.org/VNsounds/ontology/Cut">
        <rdfs:subClassOf rdf:resource="http://www.w3id.org/VNsounds/ontology/SolidDynamicMechanism"/>
    </owl:Class>
    


    <!-- http://www.w3id.org/VNsounds/ontology/Deformation -->

    <owl:Class rdf:about="http://www.w3id.org/VNsounds/ontology/Deformation">
        <rdfs:subClassOf rdf:resource="http://www.w3id.org/VNsounds/ontology/SolidDynamicMechanism"/>
        <rdfs:comment>external force causes a solid object to deform, which in turn builds up energy in the solid object in its new deformed state (Gaver, 1993). Includes crumbling/breaking etc.</rdfs:comment>
    </owl:Class>
    


    <!-- http://www.w3id.org/VNsounds/ontology/Drip -->

    <owl:Class rdf:about="http://www.w3id.org/VNsounds/ontology/Drip">
        <rdfs:subClassOf rdf:resource="http://www.w3id.org/VNsounds/ontology/LiquidDynamicMechanism"/>
        <rdfs:comment>&quot;short-lived pitched impulse followed quickly by several higher pitched, even shorter lived ones&quot; (Gaver, 1993)</rdfs:comment>
    </owl:Class>
    


    <!-- http://www.w3id.org/VNsounds/ontology/Eject -->

    <owl:Class rdf:about="http://www.w3id.org/VNsounds/ontology/Eject">
        <rdfs:subClassOf rdf:resource="http://www.w3id.org/VNsounds/ontology/UnconstrainedAirFlow"/>
    </owl:Class>
    


    <!-- http://www.w3id.org/VNsounds/ontology/ElectricMechanism -->

    <owl:Class rdf:about="http://www.w3id.org/VNsounds/ontology/ElectricMechanism">
        <rdfs:subClassOf rdf:resource="http://www.w3id.org/VNsounds/ontology/SoundMechanism"/>
    </owl:Class>
    


    <!-- http://www.w3id.org/VNsounds/ontology/Expansion -->

    <owl:Class rdf:about="http://www.w3id.org/VNsounds/ontology/Expansion">
        <rdfs:subClassOf rdf:resource="http://www.w3id.org/VNsounds/ontology/UnconstrainedAirFlow"/>
    </owl:Class>
    


    <!-- http://www.w3id.org/VNsounds/ontology/Explosion -->

    <owl:Class rdf:about="http://www.w3id.org/VNsounds/ontology/Explosion">
        <rdfs:subClassOf rdf:resource="http://www.w3id.org/VNsounds/ontology/UnconstrainedAirFlow"/>
        <rdfs:comment>a violent release of energy caused by a chemical or nuclear reaction (WordNet). 
&quot;Explosions are characterized by a powerful shock wave causing a blast wind, with a sudden positive peak in pressure followed by a negative expansion tail.&quot; (Baldan, Delle Monache, Roccheso, 2017)</rdfs:comment>
    </owl:Class>
    


    <!-- http://www.w3id.org/VNsounds/ontology/Fill -->

    <owl:Class rdf:about="http://www.w3id.org/VNsounds/ontology/Fill">
        <rdfs:subClassOf rdf:resource="http://www.w3id.org/VNsounds/ontology/LiquidDynamicMechanism"/>
        <rdfs:comment>liquid filling a container (Guyot et al., 2017)</rdfs:comment>
    </owl:Class>
    


    <!-- http://www.w3id.org/VNsounds/ontology/Flow -->

    <owl:Class rdf:about="http://www.w3id.org/VNsounds/ontology/Flow">
        <rdfs:subClassOf rdf:resource="http://www.w3id.org/VNsounds/ontology/LiquidDynamicMechanism"/>
        <rdfs:comment>liquid flowing into another liquid/water (Guyot et al., 2017)</rdfs:comment>
    </owl:Class>
    


    <!-- http://www.w3id.org/VNsounds/ontology/Friction -->

    <owl:Class rdf:about="http://www.w3id.org/VNsounds/ontology/Friction">
        <rdfs:subClassOf rdf:resource="http://www.w3id.org/VNsounds/ontology/SolidDynamicMechanism"/>
        <rdfs:comment>sound emitted by the resistance encountered when one body is moved in contact with another (WordNet, friction.n.02)</rdfs:comment>
    </owl:Class>
    


    <!-- http://www.w3id.org/VNsounds/ontology/Gas -->

    <owl:Class rdf:about="http://www.w3id.org/VNsounds/ontology/Gas">
        <rdfs:subClassOf rdf:resource="http://www.w3id.org/VNsounds/ontology/SoundMaterial"/>
    </owl:Class>
    


    <!-- http://www.w3id.org/VNsounds/ontology/Gusts -->

    <owl:Class rdf:about="http://www.w3id.org/VNsounds/ontology/Gusts">
        <rdfs:subClassOf rdf:resource="http://www.w3id.org/VNsounds/ontology/ConstrainedAirFlow"/>
        <rdfs:comment>air flow resulting from bodily function, i.e. digestive tract</rdfs:comment>
    </owl:Class>
    


    <!-- http://www.w3id.org/VNsounds/ontology/Hiss -->

    <owl:Class rdf:about="http://www.w3id.org/VNsounds/ontology/Hiss">
        <rdfs:subClassOf rdf:resource="http://www.w3id.org/VNsounds/ontology/ConstrainedAirFlow"/>
        <rdfs:comment>continous flow of air from an otherwise closed object (e.g., hissing of a leaking pipe)</rdfs:comment>
    </owl:Class>
    


    <!-- http://www.w3id.org/VNsounds/ontology/Impact -->

    <owl:Class rdf:about="http://www.w3id.org/VNsounds/ontology/Impact">
        <rdfs:subClassOf rdf:resource="http://www.w3id.org/VNsounds/ontology/SolidDynamicMechanism"/>
        <rdfs:comment>sound emitted by one solid object directly bumping into another solid object. Usually involve &quot;rapid and sicrete deformation of an object&quot; (Gaver, 1993)</rdfs:comment>
    </owl:Class>
    


    <!-- http://www.w3id.org/VNsounds/ontology/Liquid -->

    <owl:Class rdf:about="http://www.w3id.org/VNsounds/ontology/Liquid">
        <rdfs:subClassOf rdf:resource="http://www.w3id.org/VNsounds/ontology/SoundMaterial"/>
    </owl:Class>
    


    <!-- http://www.w3id.org/VNsounds/ontology/LiquidDynamicMechanism -->

    <owl:Class rdf:about="http://www.w3id.org/VNsounds/ontology/LiquidDynamicMechanism">
        <owl:equivalentClass>
            <owl:Class>
                <owl:intersectionOf rdf:parseType="Collection">
                    <rdf:Description rdf:about="http://www.w3id.org/VNsounds/ontology/SoundMechanism"/>
                    <owl:Restriction>
                        <owl:onProperty rdf:resource="http://www.w3id.org/VNsounds/ontology/hasMaterial"/>
                        <owl:someValuesFrom rdf:resource="http://www.w3id.org/VNsounds/ontology/Liquid"/>
                    </owl:Restriction>
                </owl:intersectionOf>
            </owl:Class>
        </owl:equivalentClass>
        <rdfs:subClassOf rdf:resource="http://www.w3id.org/VNsounds/ontology/SoundMechanism"/>
        <rdfs:comment>&quot;[Liquid Sounds] are determined by the formation and chage of resonant cavities in the surface of the liquid. [...] The details of such sounds are likely to be influenced by many factors, particularly the mass, tsize, and speed of the object and the viscosity of the liquid&quot; (Gaver, 1993)</rdfs:comment>
    </owl:Class>
    


    <!-- http://www.w3id.org/VNsounds/ontology/Motion -->

    <owl:Class rdf:about="http://www.w3id.org/VNsounds/ontology/Motion">
        <rdfs:subClassOf rdf:resource="http://www.w3id.org/VNsounds/ontology/SoundMechanism"/>
    </owl:Class>
    


    <!-- http://www.w3id.org/VNsounds/ontology/Movement -->

    <owl:Class rdf:about="http://www.w3id.org/VNsounds/ontology/Movement">
        <rdfs:subClassOf rdf:resource="http://www.w3id.org/VNsounds/ontology/SoundAttribute"/>
    </owl:Class>
    


    <!-- http://www.w3id.org/VNsounds/ontology/NoSound -->

    <owl:Class rdf:about="http://www.w3id.org/VNsounds/ontology/NoSound">
        <rdfs:subClassOf rdf:resource="http://www.w3id.org/VNsounds/ontology/SoundMechanism"/>
    </owl:Class>
    


    <!-- http://www.w3id.org/VNsounds/ontology/Patterned -->

    <owl:Class rdf:about="http://www.w3id.org/VNsounds/ontology/Patterned">
        <rdfs:subClassOf rdf:resource="http://www.w3id.org/VNsounds/ontology/SoundRegularity"/>
    </owl:Class>
    


    <!-- http://www.w3id.org/VNsounds/ontology/Periodic -->

    <owl:Class rdf:about="http://www.w3id.org/VNsounds/ontology/Periodic">
        <rdfs:subClassOf rdf:resource="http://www.w3id.org/VNsounds/ontology/SoundRegularity"/>
    </owl:Class>
    


    <!-- http://www.w3id.org/VNsounds/ontology/Pour -->

    <owl:Class rdf:about="http://www.w3id.org/VNsounds/ontology/Pour">
        <rdfs:subClassOf rdf:resource="http://www.w3id.org/VNsounds/ontology/LiquidDynamicMechanism"/>
    </owl:Class>
    


    <!-- http://www.w3id.org/VNsounds/ontology/Random -->

    <owl:Class rdf:about="http://www.w3id.org/VNsounds/ontology/Random">
        <rdfs:subClassOf rdf:resource="http://www.w3id.org/VNsounds/ontology/SoundRegularity"/>
    </owl:Class>
    


    <!-- http://www.w3id.org/VNsounds/ontology/Ripple -->

    <owl:Class rdf:about="http://www.w3id.org/VNsounds/ontology/Ripple">
        <rdfs:subClassOf rdf:resource="http://www.w3id.org/VNsounds/ontology/LiquidDynamicMechanism"/>
        <rdfs:comment>flow in an irregular current with a bubbling noise (WordNet, ripple.v.02)</rdfs:comment>
    </owl:Class>
    


    <!-- http://www.w3id.org/VNsounds/ontology/Roll -->

    <owl:Class rdf:about="http://www.w3id.org/VNsounds/ontology/Roll">
        <rdfs:subClassOf rdf:resource="http://www.w3id.org/VNsounds/ontology/SolidDynamicMechanism"/>
    </owl:Class>
    


    <!-- http://www.w3id.org/VNsounds/ontology/Scrape -->

    <owl:Class rdf:about="http://www.w3id.org/VNsounds/ontology/Scrape">
        <rdfs:subClassOf rdf:resource="http://www.w3id.org/VNsounds/ontology/SolidDynamicMechanism"/>
    </owl:Class>
    


    <!-- http://www.w3id.org/VNsounds/ontology/Sequence -->

    <owl:Class rdf:about="http://www.w3id.org/VNsounds/ontology/Sequence">
        <rdfs:subClassOf rdf:resource="http://www.w3id.org/VNsounds/ontology/SoundRecurrence"/>
    </owl:Class>
    


    <!-- http://www.w3id.org/VNsounds/ontology/Single -->

    <owl:Class rdf:about="http://www.w3id.org/VNsounds/ontology/Single">
        <rdfs:subClassOf rdf:resource="http://www.w3id.org/VNsounds/ontology/SoundRecurrence"/>
    </owl:Class>
    


    <!-- http://www.w3id.org/VNsounds/ontology/Solid -->

    <owl:Class rdf:about="http://www.w3id.org/VNsounds/ontology/Solid">
        <rdfs:subClassOf rdf:resource="http://www.w3id.org/VNsounds/ontology/SoundMaterial"/>
    </owl:Class>
    


    <!-- http://www.w3id.org/VNsounds/ontology/SolidDynamicMechanism -->

    <owl:Class rdf:about="http://www.w3id.org/VNsounds/ontology/SolidDynamicMechanism">
        <owl:equivalentClass>
            <owl:Class>
                <owl:intersectionOf rdf:parseType="Collection">
                    <rdf:Description rdf:about="http://www.w3id.org/VNsounds/ontology/SoundMechanism"/>
                    <owl:Restriction>
                        <owl:onProperty rdf:resource="http://www.w3id.org/VNsounds/ontology/hasMaterial"/>
                        <owl:someValuesFrom rdf:resource="http://www.w3id.org/VNsounds/ontology/Solid"/>
                    </owl:Restriction>
                </owl:intersectionOf>
            </owl:Class>
        </owl:equivalentClass>
        <rdfs:subClassOf rdf:resource="http://www.w3id.org/VNsounds/ontology/SoundMechanism"/>
        <rdfs:comment>&quot;sound waves created by solid objects are due to the interaction of a vibrating surface with the atmosphere&quot; (Gaver, 1993)</rdfs:comment>
    </owl:Class>
    


    <!-- http://www.w3id.org/VNsounds/ontology/SoundAcoustics -->

    <owl:Class rdf:about="http://www.w3id.org/VNsounds/ontology/SoundAcoustics"/>
    


    <!-- http://www.w3id.org/VNsounds/ontology/SoundAttribute -->

    <owl:Class rdf:about="http://www.w3id.org/VNsounds/ontology/SoundAttribute"/>
    


    <!-- http://www.w3id.org/VNsounds/ontology/SoundContext -->

    <owl:Class rdf:about="http://www.w3id.org/VNsounds/ontology/SoundContext"/>
    


    <!-- http://www.w3id.org/VNsounds/ontology/SoundMaterial -->

    <owl:Class rdf:about="http://www.w3id.org/VNsounds/ontology/SoundMaterial">
        <rdfs:subClassOf rdf:resource="http://www.w3.org/2002/07/owl#Thing"/>
        <rdfs:comment rdf:datatype="http://www.w3.org/2001/XMLSchema#string">Physical material involved in a sound (i.e. its mechanism or source).</rdfs:comment>
    </owl:Class>
    


    <!-- http://www.w3id.org/VNsounds/ontology/SoundMechanism -->

    <owl:Class rdf:about="http://www.w3id.org/VNsounds/ontology/SoundMechanism">
        <rdfs:subClassOf rdf:resource="http://www.w3.org/2002/07/owl#Thing"/>
        <rdfs:comment rdf:datatype="http://www.w3.org/2001/XMLSchema#string">Sound mechanisms correspond to the sound-producing events in Gaver (1993), which were previously employed in a taxonomy of action sounds (Lemaitre &amp; Heller, 2013). In this taxonomy, the sound-mechanism was referred to &quot;Type of Sound&quot; at the second level of the taxonomic schema. Accordingly, we refer to an ecological framework of categorizing everday sounds by their acoustic properties, which provide information about what is actually producing the sound ????

They correspond to the physical event, directly causing the sound waves, which are processed by the auditory system. They are intermediate representations of sound (i.e., &quot;hyper-acoustics&quot;), not to be confused with the higher-level sound descriptions under the &quot;Sound&quot;-class.</rdfs:comment>
    </owl:Class>
    


    <!-- http://www.w3id.org/VNsounds/ontology/SoundObject -->

    <owl:Class rdf:about="http://www.w3id.org/VNsounds/ontology/SoundObject">
        <rdfs:subClassOf rdf:resource="http://www.w3id.org/VNsounds/ontology/SoundMechanism"/>
    </owl:Class>
    


    <!-- http://www.w3id.org/VNsounds/ontology/SoundRecurrence -->

    <owl:Class rdf:about="http://www.w3id.org/VNsounds/ontology/SoundRecurrence">
        <rdfs:subClassOf rdf:resource="http://www.w3id.org/VNsounds/ontology/SoundAcoustics"/>
    </owl:Class>
    


    <!-- http://www.w3id.org/VNsounds/ontology/SoundRegularity -->

    <owl:Class rdf:about="http://www.w3id.org/VNsounds/ontology/SoundRegularity">
        <rdfs:subClassOf rdf:resource="http://www.w3id.org/VNsounds/ontology/SoundAcoustics"/>
    </owl:Class>
    


    <!-- http://www.w3id.org/VNsounds/ontology/SoundSource -->

    <owl:Class rdf:about="http://www.w3id.org/VNsounds/ontology/SoundSource"/>
    


    <!-- http://www.w3id.org/VNsounds/ontology/Splash -->

    <owl:Class rdf:about="http://www.w3id.org/VNsounds/ontology/Splash">
        <rdfs:subClassOf rdf:resource="http://www.w3id.org/VNsounds/ontology/LiquidDynamicMechanism"/>
        <rdfs:comment>&quot;changing cavities are formed which resonate, amplify and modify the sounds made by impacts of liquid on itself and other objects&quot; (Gaver, 1993)</rdfs:comment>
    </owl:Class>
    


    <!-- http://www.w3id.org/VNsounds/ontology/Spray -->

    <owl:Class rdf:about="http://www.w3id.org/VNsounds/ontology/Spray">
        <rdfs:subClassOf rdf:resource="http://www.w3id.org/VNsounds/ontology/LiquidDynamicMechanism"/>
    </owl:Class>
    


    <!-- http://www.w3id.org/VNsounds/ontology/Static -->

    <owl:Class rdf:about="http://www.w3id.org/VNsounds/ontology/Static">
        <rdfs:subClassOf rdf:resource="http://www.w3id.org/VNsounds/ontology/SoundAttribute"/>
    </owl:Class>
    


    <!-- http://www.w3id.org/VNsounds/ontology/SyntheticMechanism -->

    <owl:Class rdf:about="http://www.w3id.org/VNsounds/ontology/SyntheticMechanism">
        <rdfs:subClassOf rdf:resource="http://www.w3id.org/VNsounds/ontology/SoundMechanism"/>
    </owl:Class>
    


    <!-- http://www.w3id.org/VNsounds/ontology/UnclearMechanism -->

    <owl:Class rdf:about="http://www.w3id.org/VNsounds/ontology/UnclearMechanism">
        <rdfs:subClassOf rdf:resource="http://www.w3id.org/VNsounds/ontology/SoundMechanism"/>
    </owl:Class>
    


    <!-- http://www.w3id.org/VNsounds/ontology/UnconstrainedAirFlow -->

    <owl:Class rdf:about="http://www.w3id.org/VNsounds/ontology/UnconstrainedAirFlow">
        <rdfs:subClassOf rdf:resource="http://www.w3id.org/VNsounds/ontology/AeroDynamicMechanism"/>
    </owl:Class>
    


    <!-- http://www.w3id.org/VNsounds/ontology/Vocal -->

    <owl:Class rdf:about="http://www.w3id.org/VNsounds/ontology/Vocal">
        <rdfs:subClassOf rdf:resource="http://www.w3id.org/VNsounds/ontology/ConstrainedAirFlow"/>
        <rdfs:comment>expulsion of air through the throat, causing vibration of the vocal cords</rdfs:comment>
    </owl:Class>
    


    <!-- http://www.w3id.org/VNsounds/ontology/Wind -->

    <owl:Class rdf:about="http://www.w3id.org/VNsounds/ontology/Wind">
        <rdfs:subClassOf rdf:resource="http://www.w3id.org/VNsounds/ontology/UnconstrainedAirFlow"/>
        <rdfs:comment>continous flow of air with high velocity (e.g., wind rushing from a fan)</rdfs:comment>
    </owl:Class>
    


    <!-- http://www.w3id.org/VNsounds/ontology/bray -->

    <owl:Class rdf:about="http://www.w3id.org/VNsounds/ontology/bray">
        <rdfs:subClassOf rdf:resource="http://www.w3id.org/VerbNet/animal_sounds-38"/>
    </owl:Class>
    


    <!-- http://www.w3id.org/VNsounds/ontology/chirp -->

    <owl:Class rdf:about="http://www.w3id.org/VNsounds/ontology/chirp">
        <rdfs:subClassOf rdf:resource="http://www.w3id.org/VerbNet/animal_sounds-38"/>
    </owl:Class>
    


    <!-- http://www.w3id.org/VNsounds/ontology/crackle -->

    <owl:Class rdf:about="http://www.w3id.org/VNsounds/ontology/crackle">
        <rdfs:subClassOf rdf:resource="http://www.w3id.org/VerbNet/sound_emission-43.2"/>
    </owl:Class>
    


    <!-- http://www.w3id.org/VNsounds/ontology/crumple -->

    <owl:Class rdf:about="http://www.w3id.org/VNsounds/ontology/crumple">
        <rdfs:subClassOf rdf:resource="http://www.w3id.org/VerbNet/other_cos-45.4"/>
    </owl:Class>
    


    <!-- http://www.w3id.org/VNsounds/ontology/fart -->

    <owl:Class rdf:about="http://www.w3id.org/VNsounds/ontology/fart">
        <rdfs:subClassOf rdf:resource="http://www.w3id.org/VerbNet/nonverbal_expression-40.2"/>
    </owl:Class>
    


    <!-- http://www.w3id.org/VNsounds/ontology/flutter -->

    <owl:Class rdf:about="http://www.w3id.org/VNsounds/ontology/flutter">
        <rdfs:subClassOf rdf:resource="http://www.w3id.org/VerbNet/animal_sounds-38"/>
    </owl:Class>
    


    <!-- http://www.w3id.org/VNsounds/ontology/jingle -->

    <owl:Class rdf:about="http://www.w3id.org/VNsounds/ontology/jingle">
        <rdfs:subClassOf rdf:resource="http://www.w3id.org/VerbNet/sound_emission-43.2"/>
    </owl:Class>
    


    <!-- http://www.w3id.org/VNsounds/ontology/snore -->

    <owl:Class rdf:about="http://www.w3id.org/VNsounds/ontology/snore">
        <rdfs:subClassOf rdf:resource="http://www.w3id.org/VerbNet/nonverbal_expression-40.2"/>
    </owl:Class>
    


    <!-- http://www.w3id.org/VNsounds/ontology/10.x -->

    <owl:Class rdf:about="http://www.w3id.org/VNsounds/ontology/10.x">
        <rdfs:subClassOf rdf:resource="http://www.w3id.org/VerbNet/Removing"/>
        <rdfs:comment rdf:datatype="http://www.w3.org/2001/XMLSchema#string">Verbnet class</rdfs:comment>
    </owl:Class>
    


    <!-- http://www.w3id.org/VNsounds/ontology/11.x -->

    <owl:Class rdf:about="http://www.w3id.org/VNsounds/ontology/11.x">
        <rdfs:subClassOf rdf:resource="http://www.w3id.org/VerbNet/Sending_and_Carrying"/>
        <rdfs:comment rdf:datatype="http://www.w3.org/2001/XMLSchema#string">Verbnet class</rdfs:comment>
    </owl:Class>
    


    <!-- http://www.w3id.org/VNsounds/ontology/12.x -->

    <owl:Class rdf:about="http://www.w3id.org/VNsounds/ontology/12.x">
        <rdfs:subClassOf rdf:resource="http://www.w3id.org/VerbNet/Exerting_Force_Push_Pull"/>
        <rdfs:comment rdf:datatype="http://www.w3.org/2001/XMLSchema#string">Verbnet class</rdfs:comment>
    </owl:Class>
    


    <!-- http://www.w3id.org/VNsounds/ontology/13.x -->

    <owl:Class rdf:about="http://www.w3id.org/VNsounds/ontology/13.x">
        <rdfs:subClassOf rdf:resource="http://www.w3id.org/VerbNet/Change_of_Possession"/>
        <rdfs:comment rdf:datatype="http://www.w3.org/2001/XMLSchema#string">Verbnet class</rdfs:comment>
    </owl:Class>
    


    <!-- http://www.w3id.org/VNsounds/ontology/15.x -->

    <owl:Class rdf:about="http://www.w3id.org/VNsounds/ontology/15.x">
        <rdfs:subClassOf rdf:resource="http://www.w3id.org/VerbNet/Hold_and_Keep"/>
        <rdfs:comment rdf:datatype="http://www.w3.org/2001/XMLSchema#string">Verbnet class</rdfs:comment>
    </owl:Class>
    


    <!-- http://www.w3id.org/VNsounds/ontology/16.x -->

    <owl:Class rdf:about="http://www.w3id.org/VNsounds/ontology/16.x">
        <rdfs:subClassOf rdf:resource="http://www.w3id.org/VerbNet/Concealment"/>
        <rdfs:comment rdf:datatype="http://www.w3.org/2001/XMLSchema#string">Verbnet class</rdfs:comment>
    </owl:Class>
    


    <!-- http://www.w3id.org/VNsounds/ontology/17.x -->

    <owl:Class rdf:about="http://www.w3id.org/VNsounds/ontology/17.x">
        <rdfs:subClassOf rdf:resource="http://www.w3id.org/VerbNet/Throwing"/>
        <rdfs:comment rdf:datatype="http://www.w3.org/2001/XMLSchema#string">Verbnet class</rdfs:comment>
    </owl:Class>
    


    <!-- http://www.w3id.org/VNsounds/ontology/18.x -->

    <owl:Class rdf:about="http://www.w3id.org/VNsounds/ontology/18.x">
        <rdfs:subClassOf rdf:resource="http://www.w3id.org/VerbNet/Contact_by_Impact"/>
        <rdfs:comment rdf:datatype="http://www.w3.org/2001/XMLSchema#string">Verbnet class</rdfs:comment>
    </owl:Class>
    


    <!-- http://www.w3id.org/VNsounds/ontology/20.x -->

    <owl:Class rdf:about="http://www.w3id.org/VNsounds/ontology/20.x">
        <rdfs:subClassOf rdf:resource="http://www.w3id.org/VerbNet/Contact_Touch"/>
        <rdfs:comment rdf:datatype="http://www.w3.org/2001/XMLSchema#string">Verbnet class</rdfs:comment>
    </owl:Class>
    


    <!-- http://www.w3id.org/VNsounds/ontology/21.x -->

    <owl:Class rdf:about="http://www.w3id.org/VNsounds/ontology/21.x">
        <rdfs:subClassOf rdf:resource="http://www.w3id.org/VerbNet/Cutting"/>
        <rdfs:comment rdf:datatype="http://www.w3.org/2001/XMLSchema#string">Verbnet class</rdfs:comment>
    </owl:Class>
    


    <!-- http://www.w3id.org/VNsounds/ontology/22.x -->

    <owl:Class rdf:about="http://www.w3id.org/VNsounds/ontology/22.x">
        <rdfs:subClassOf rdf:resource="http://www.w3id.org/VerbNet/Combining_and_Attaching"/>
        <rdfs:comment rdf:datatype="http://www.w3.org/2001/XMLSchema#string">Verbnet class</rdfs:comment>
    </owl:Class>
    


    <!-- http://www.w3id.org/VNsounds/ontology/23.x -->

    <owl:Class rdf:about="http://www.w3id.org/VNsounds/ontology/23.x">
        <rdfs:subClassOf rdf:resource="http://www.w3id.org/VerbNet/Separating_and_Disassembling"/>
        <rdfs:comment rdf:datatype="http://www.w3.org/2001/XMLSchema#string">Verbnet class</rdfs:comment>
    </owl:Class>
    


    <!-- http://www.w3id.org/VNsounds/ontology/25.x -->

    <owl:Class rdf:about="http://www.w3id.org/VNsounds/ontology/25.x">
        <rdfs:subClassOf rdf:resource="http://www.w3id.org/VerbNet/Image_Creation"/>
        <rdfs:comment rdf:datatype="http://www.w3.org/2001/XMLSchema#string">Verbnet class</rdfs:comment>
    </owl:Class>
    


    <!-- http://www.w3id.org/VNsounds/ontology/26.x -->

    <owl:Class rdf:about="http://www.w3id.org/VNsounds/ontology/26.x">
        <rdfs:subClassOf rdf:resource="http://www.w3id.org/VerbNet/Creation_and_Transformation"/>
        <rdfs:comment rdf:datatype="http://www.w3.org/2001/XMLSchema#string">Verbnet class</rdfs:comment>
    </owl:Class>
    


    <!-- http://www.w3id.org/VNsounds/ontology/27.x -->

    <owl:Class rdf:about="http://www.w3id.org/VNsounds/ontology/27.x">
        <rdfs:subClassOf rdf:resource="http://www.w3id.org/VerbNet/Engender"/>
        <rdfs:comment rdf:datatype="http://www.w3.org/2001/XMLSchema#string">Verbnet class</rdfs:comment>
    </owl:Class>
    


    <!-- http://www.w3id.org/VNsounds/ontology/29.x -->

    <owl:Class rdf:about="http://www.w3id.org/VNsounds/ontology/29.x">
        <rdfs:subClassOf rdf:resource="http://www.w3id.org/VerbNet/Predicative_Complements"/>
        <rdfs:comment rdf:datatype="http://www.w3.org/2001/XMLSchema#string">Verbnet class</rdfs:comment>
    </owl:Class>
    


    <!-- http://www.w3id.org/VNsounds/ontology/30.x -->

    <owl:Class rdf:about="http://www.w3id.org/VNsounds/ontology/30.x">
        <rdfs:subClassOf rdf:resource="http://www.w3id.org/VerbNet/Perception"/>
        <rdfs:comment rdf:datatype="http://www.w3.org/2001/XMLSchema#string">Verbnet class</rdfs:comment>
    </owl:Class>
    


    <!-- http://www.w3id.org/VNsounds/ontology/31.x -->

    <owl:Class rdf:about="http://www.w3id.org/VNsounds/ontology/31.x">
        <rdfs:subClassOf rdf:resource="http://www.w3id.org/VerbNet/Psychological_State"/>
        <rdfs:comment rdf:datatype="http://www.w3.org/2001/XMLSchema#string">Verbnet class</rdfs:comment>
    </owl:Class>
    


    <!-- http://www.w3id.org/VNsounds/ontology/32.x -->

    <owl:Class rdf:about="http://www.w3id.org/VNsounds/ontology/32.x">
        <rdfs:subClassOf rdf:resource="http://www.w3id.org/VerbNet/Desire"/>
        <rdfs:comment rdf:datatype="http://www.w3.org/2001/XMLSchema#string">Verbnet class</rdfs:comment>
    </owl:Class>
    


    <!-- http://www.w3id.org/VNsounds/ontology/33.x -->

    <owl:Class rdf:about="http://www.w3id.org/VNsounds/ontology/33.x">